P23316_0
     RDKit          3D

 38 39  0  0  1  0  0  0  0  0999 V2000
    8.8688   -0.0354    1.8014 C   0  0  0  0  0  0  0  0  0  0  0  0
    9.7488    1.0524    1.2353 C   0  0  0  0  0  0  0  0  0  0  0  0
    8.9462    1.8871    0.2743 C   0  0  0  0  0  0  0  0  0  0  0  0
    8.4000    1.0965   -0.8723 C   0  0  0  0  0  0  0  0  0  0  0  0
    7.6159    2.0647   -1.7559 C   0  0  0  0  0  0  0  0  0  0  0  0
    7.0255    1.3300   -2.9518 C   0  0  0  0  0  0  0  0  0  0  0  0
    2.3270   -0.3775   -0.8245 C   0  0  0  0  0  0  0  0  0  0  0  0
    2.5379    1.1097   -0.6633 C   0  0  0  0  0  0  0  0  0  0  0  0
    2.0951   -0.9594    0.5450 C   0  0  0  0  0  0  0  0  0  0  0  0
    6.0886    0.2335   -2.5014 C   0  0  0  0  0  0  0  0  0  0  0  0
   -6.5694    1.7518   -1.3498 C   0  0  0  0  0  0  0  0  0  0  0  0
    3.7652    1.2359    0.2409 C   0  0  0  0  0  0  0  0  0  0  0  0
   -6.0829    0.4992   -0.9114 C   0  0  0  0  0  0  0  0  0  0  0  0
    0.7468   -0.2080    1.1464 C   0  0  1  0  0  0  0  0  0  0  0  0
    5.0032    0.8984   -1.7134 C   0  0  0  0  0  0  0  0  0  0  0  0
   -6.3709    2.8736   -0.5771 C   0  0  0  0  0  0  0  0  0  0  0  0
   -1.5615   -1.7763    1.6163 C   0  0  1  0  0  0  0  0  0  0  0  0
   -3.2927   -2.5930   -0.0742 C   0  0  1  0  0  0  0  0  0  0  0  0
   -4.2299   -1.3813   -0.8273 C   0  0  2  0  0  0  0  0  0  0  0  0
   -3.2827   -1.8494    1.4653 C   0  0  2  0  0  0  0  0  0  0  0  0
   -0.2311   -0.7182   -0.0020 C   0  0  0  0  0  0  0  0  0  0  0  0
   -4.9055   -0.9703    0.7181 C   0  0  2  0  0  0  0  0  0  0  0  0
   -1.3905   -3.3742    1.5418 C   0  0  0  0  0  0  0  0  0  0  0  0
   -5.2462    1.4734    0.9807 C   0  0  0  0  0  0  0  0  0  0  0  0
    0.4989   -1.3736    2.2028 N   0  0  0  0  0  0  0  0  0  0  0  0
    4.8374    0.5633   -0.4979 N   0  0  0  0  0  0  0  0  0  0  0  0
   -5.7091    2.7016    0.5767 N   0  0  0  0  0  0  0  0  0  0  0  0
   -1.2324   -1.3937    0.1501 N   0  0  0  0  0  0  0  0  0  0  0  0
   -5.4376    0.3962    0.2371 N   0  0  0  0  0  0  0  0  0  0  0  0
    4.2338    1.8522   -2.3647 O   0  0  0  0  0  0  0  0  0  0  0  0
   -6.8387    4.1207   -0.9834 O   0  0  0  0  0  0  0  0  0  0  0  0
   -4.4110   -3.5056    0.3677 O   0  0  0  0  0  0  0  0  0  0  0  0
   -5.3760   -2.2098   -1.3089 O   0  0  0  0  0  0  0  0  0  0  0  0
    0.2199   -0.2743   -1.2470 O   0  0  0  0  0  0  0  0  0  0  0  0
   -1.0833   -3.9440    0.5273 O   0  0  0  0  0  0  0  0  0  0  0  0
   -1.6191   -4.0606    2.7213 O   0  0  0  0  0  0  0  0  0  0  0  0
   -4.6280    1.3328    2.0656 O   0  0  0  0  0  0  0  0  0  0  0  0
   -3.4604   -0.4435    1.0123 O   0  0  0  0  0  0  0  0  0  0  0  0
  1  2  1  0
  2  3  1  0
  3  4  1  0
  4  5  1  0
  5  6  1  0
  6 10  1  0
  7  8  1  0
  7  9  1  0
  8 12  1  0
  9 14  1  0
 10 15  1  0
 11 13  2  0
 11 16  1  0
 12 26  1  0
 13 29  1  0
 14 21  1  0
 14 25  1  1
 15 26  2  3
 15 30  1  0
 16 27  2  0
 16 31  1  0
 17 20  1  0
 17 23  1  0
 17 28  1  6
 18 19  1  0
 18 20  1  0
 18 32  1  1
 19 22  1  0
 19 33  1  6
 20 38  1  6
 21 28  2  3
 21 34  1  0
 22 29  1  6
 22 38  1  0
 23 35  2  0
 23 36  1  0
 24 27  1  0
 24 29  1  0
 24 37  2  0
M  END
>  <InChI>  (1) 
InChI=1S/C24H39N5O9/c1-2-3-4-5-6-10-15(30)26-12-8-7-9-14(25)21(34)28-17(23(35)36)20-18(32)19(33)22(38-20)29-13-11-16(31)27-24(29)37/h11,13-14,17-20,22,32-33H,2-10,12,25H2,1H3,(H,26,30)(H,28,34)(H,35,36)(H,27,31,37)/t14-,17-,18-,19+,20+,22+/m0/s1

>  <Activity>  (1) 
No data

$$$$
P23316_1
     RDKit          2D

 27 28  0  0  1  0  0  0  0  0999 V2000
   -7.8850  -10.5278    0.0000 C   0  0  0  0  0  0  0  0  0  0  0  0
    1.5000    0.0000    0.0000 C   0  0  0  0  0  0  0  0  0  0  0  0
    0.7500   -1.2990    0.0000 C   0  0  0  0  0  0  0  0  0  0  0  0
   -7.7282   -9.0360    0.0000 C   0  0  0  0  0  0  0  0  0  0  0  0
    0.7500    1.2990    0.0000 C   0  0  0  0  0  0  0  0  0  0  0  0
   -6.3579   -8.4259    0.0000 C   0  0  0  0  0  0  0  0  0  0  0  0
   -4.6740   -4.8322    0.0000 C   0  0  0  0  0  0  0  0  0  0  0  0
   -2.0046   -4.9721    0.0000 C   0  0  0  0  0  0  0  0  0  0  0  0
   -0.8899   -3.9684    0.0000 C   0  0  0  0  0  0  0  0  0  0  0  0
   -3.3037   -4.2221    0.0000 C   0  0  0  0  0  0  0  0  0  0  0  0
   -6.2011   -6.9341    0.0000 C   0  0  0  0  0  0  0  0  0  0  0  0
   -1.5000   -2.5981    0.0000 C   0  0  0  0  0  0  0  0  0  0  0  0
   -5.8875   -3.9505    0.0000 C   0  0  0  0  0  0  0  0  0  0  0  0
   -1.5000    0.0000    0.0000 C   0  0  0  0  0  0  0  0  0  0  0  0
   -5.1443   -9.3075    0.0000 N   0  0  0  0  0  0  0  0  0  0  0  0
   -0.7500    1.2990    0.0000 N   0  0  0  0  0  0  0  0  0  0  0  0
   -4.8308   -6.3240    0.0000 N   0  0  0  0  0  0  0  0  0  0  0  0
   -0.7500   -1.2990    0.0000 N   0  0  0  0  0  0  0  0  0  0  0  0
   -8.9417   -8.1543    0.0000 O   0  0  0  0  0  0  0  0  0  0  0  0
    1.5000    2.5981    0.0000 O   0  0  0  0  0  0  0  0  0  0  0  0
   -1.8478   -6.4639    0.0000 O   0  0  0  0  0  0  0  0  0  0  0  0
    0.5773   -4.2803    0.0000 O   0  0  0  0  0  0  0  0  0  0  0  0
   -7.4146   -6.0524    0.0000 O   0  0  0  0  0  0  0  0  0  0  0  0
   -5.7307   -2.4587    0.0000 O   0  0  0  0  0  0  0  0  0  0  0  0
   -7.2578   -4.5606    0.0000 O   0  0  0  0  0  0  0  0  0  0  0  0
   -3.0000    0.0000    0.0000 O   0  0  0  0  0  0  0  0  0  0  0  0
   -2.9918   -2.7549    0.0000 O   0  0  0  0  0  0  0  0  0  0  0  0
  4  1  1  1
  2  3  2  0
  2  5  1  0
  3 18  1  0
  4  6  1  0
  4 19  1  0
  5 16  2  0
  5 20  1  0
  6 11  1  0
  6 15  1  1
  7 10  1  0
  7 13  1  0
  7 17  1  1
  8  9  1  0
  8 10  1  0
  8 21  1  6
  9 12  1  0
  9 22  1  6
 10 27  1  1
 11 17  2  3
 11 23  1  0
 12 18  1  1
 12 27  1  0
 13 24  2  0
 13 25  1  0
 14 16  1  0
 14 18  1  0
 14 26  2  0
M  END
>  <InChI>  (2) 
InChI=1S/C14H20N4O9/c1-4(19)6(15)11(23)17-7(13(24)25)10-8(21)9(22)12(27-10)18-3-2-5(20)16-14(18)26/h2-4,6-10,12,19,21-22H,15H2,1H3,(H,17,23)(H,24,25)(H,16,20,26)/t4-,6+,7-,8+,9-,10-,12-/m1/s1

>  <Activity>  (2) 
No data

$$$$
P23316_2
     RDKit          3D

 32 34  0  0  1  0  0  0  0  0999 V2000
   -5.8987    2.1841   -1.2306 C   0  0  0  0  0  0  0  0  0  0  0  0
   -6.5900    1.0340   -1.5096 C   0  0  0  0  0  0  0  0  0  0  0  0
   -4.5847    2.1686   -0.8568 C   0  0  0  0  0  0  0  0  0  0  0  0
   -5.9403   -0.1577   -1.4089 C   0  0  0  0  0  0  0  0  0  0  0  0
   -3.9595    0.9427   -0.7656 C   0  0  0  0  0  0  0  0  0  0  0  0
   -3.9480   -1.5740   -0.9382 C   0  0  0  0  0  0  0  0  0  0  0  0
   -4.1420   -2.0607    0.4810 C   0  0  0  0  0  0  0  0  0  0  0  0
    6.1125    0.7698    0.7647 C   0  0  0  0  0  0  0  0  0  0  0  0
    4.7569    0.7719    1.1414 C   0  0  0  0  0  0  0  0  0  0  0  0
   -4.5940   -0.2526   -1.0316 C   0  0  0  0  0  0  0  0  0  0  0  0
   -3.4809   -1.1249    1.4042 C   0  0  0  0  0  0  0  0  0  0  0  0
    6.4449    0.8136   -0.5706 C   0  0  0  0  0  0  0  0  0  0  0  0
   -0.0339   -1.5542    0.0171 C   0  0  0  0  0  0  0  0  0  0  0  0
    0.4442    0.6135   -0.8468 C   0  0  1  0  0  0  0  0  0  0  0  0
    1.6199    1.7458   -0.4623 C   0  0  2  0  0  0  0  0  0  0  0  0
    0.5830   -0.1863    0.6347 C   0  0  2  0  0  0  0  0  0  0  0  0
   -2.0422   -0.9472    1.2637 C   0  0  0  0  0  0  0  0  0  0  0  0
    2.3673    0.8131    0.7521 C   0  0  2  0  0  0  0  0  0  0  0  0
    0.7605   -2.6642    0.4967 C   0  0  0  0  0  0  0  0  0  0  0  0
    4.1468    0.8566   -1.0421 C   0  0  0  0  0  0  0  0  0  0  0  0
   -4.0081   -1.0064    2.7055 N   0  0  0  0  0  0  0  0  0  0  0  0
    5.4416    0.8566   -1.4601 N   0  0  0  0  0  0  0  0  0  0  0  0
   -1.3874   -1.5332    0.3776 N   0  0  0  0  0  0  0  0  0  0  0  0
    3.7991    0.8162    0.2028 N   0  0  0  0  0  0  0  0  0  0  0  0
    7.7826    0.8132   -0.9903 O   0  0  0  0  0  0  0  0  0  0  0  0
   -0.7905    1.3373   -0.4839 O   0  0  0  0  0  0  0  0  0  0  0  0
    0.9163    2.5614    0.5592 O   0  0  0  0  0  0  0  0  0  0  0  0
   -1.4404   -0.1032    2.1543 O   0  0  0  0  0  0  0  0  0  0  0  0
    0.3701   -3.6211    1.2072 O   0  0  0  0  0  0  0  0  0  0  0  0
    2.1158   -2.7046    0.1477 O   0  0  0  0  0  0  0  0  0  0  0  0
    3.1842    0.8973   -1.8797 O   0  0  0  0  0  0  0  0  0  0  0  0
    1.9949   -0.5053    0.1431 O   0  0  0  0  0  0  0  0  0  0  0  0
  1  2  2  0
  1  3  1  0
  2  4  1  0
  3  5  2  0
  4 10  2  0
  5 10  1  0
  6  7  1  0
  6 10  1  0
  7 11  1  0
  8  9  2  0
  8 12  1  0
  9 24  1  0
 11 17  1  0
 11 21  1  0
 12 22  2  0
 12 25  1  0
 16 13  1  6
 13 19  1  0
 13 23  1  0
 14 15  1  0
 14 16  1  0
 14 26  1  1
 15 18  1  0
 15 27  1  1
 16 32  1  0
 17 23  2  3
 17 28  1  0
 18 24  1  6
 18 32  1  0
 19 29  2  0
 19 30  1  0
 20 22  1  0
 20 24  1  0
 20 31  2  0
M  END
>  <InChI>  (3) 
InChI=1S/C20H24N4O8/c21-11(7-6-10-4-2-1-3-5-10)17(28)23-13(19(29)30)16-14(26)15(27)18(32-16)24-9-8-12(25)22-20(24)31/h1-5,8-9,11,13-16,18,26-27H,6-7,21H2,(H,23,28)(H,29,30)(H,22,25,31)/t11?,13?,14-,15+,16+,18+/m0/s1

>  <Activity>  (3) 
No data

$$$$
P23316_3
     RDKit          3D

 22 23  0  0  1  0  0  0  0  0999 V2000
    5.2364    3.2168    1.7190 C   0  0  0  0  0  0  0  0  0  0  0  0
    6.7290    1.8029    0.3647 C   0  0  0  0  0  0  0  0  0  0  0  0
    5.8634    0.9076    2.4689 C   0  0  0  0  0  0  0  0  0  0  0  0
    0.4248   -3.0869   -1.3690 C   0  0  0  0  0  0  0  0  0  0  0  0
    2.2240    0.3128   -0.6488 C   0  0  0  0  0  0  0  0  0  0  0  0
    3.3663    0.8337    0.0075 C   0  0  0  0  0  0  0  0  0  0  0  0
    1.2591   -0.1407   -1.2184 C   0  0  0  0  0  0  0  0  0  0  0  0
   -3.3151   -3.0177    0.6261 C   0  0  0  0  0  0  0  0  0  0  0  0
   -4.0624   -1.8745    0.6813 C   0  0  0  0  0  0  0  0  0  0  0  0
   -2.1169   -3.0272   -0.0157 C   0  0  0  0  0  0  0  0  0  0  0  0
   -1.8425    0.4926   -1.2310 C   0  0  0  0  0  0  0  0  0  0  0  0
   -2.6772    1.6811   -1.1442 C   0  0  0  0  0  0  0  0  0  0  0  0
    4.3309    1.2780    0.5817 C   0  0  0  0  0  0  0  0  0  0  0  0
    0.0834   -0.6893   -1.9003 C   0  0  0  0  0  0  0  0  0  0  0  0
   -2.3756   -0.7041   -0.5814 C   0  0  0  0  0  0  0  0  0  0  0  0
   -3.5712   -0.7109    0.0640 C   0  0  0  0  0  0  0  0  0  0  0  0
   -1.6340   -1.8973   -0.6182 C   0  0  0  0  0  0  0  0  0  0  0  0
   -3.9383    1.5385   -0.4220 C   0  0  0  0  0  0  0  0  0  0  0  0
    5.5182    1.8012    1.2994 C   0  0  0  0  0  0  0  0  0  0  0  0
   -4.3816    0.4785    0.1386 N   0  0  0  0  0  0  0  0  0  0  0  0
   -0.3891   -1.9007   -1.2860 N   0  0  0  0  0  0  0  0  0  0  0  0
   -4.7316    2.7055   -0.3499 O   0  0  0  0  0  0  0  0  0  0  0  0
  1 19  1  0
  2 19  1  0
  3 19  1  0
  4 21  1  0
  5  6  1  0
  5  7  3  0
  6 13  3  0
  7 14  1  0
  8  9  2  0
  8 10  1  0
  9 16  1  0
 10 17  2  0
 11 12  1  0
 11 15  1  0
 12 18  1  0
 13 19  1  0
 14 21  1  0
 15 16  2  0
 15 17  1  0
 16 20  1  0
 17 21  1  0
 18 20  2  0
 18 22  1  0
M  END
>  <InChI>  (4) 
InChI=1S/C19H22N2O/c1-19(2,3)13-6-5-7-14-21(4)17-10-8-9-16-15(17)11-12-18(22)20-16/h8-10H,11-12,14H2,1-4H3,(H,20,22)

>  <Activity>  (4) 
No data

$$$$
P23316_4
     RDKit          3D

 32 34  0  0  1  0  0  0  0  0999 V2000
    5.2470   -0.4293    1.1940 C   0  0  0  0  0  0  0  0  0  0  0  0
    4.1809    0.9559   -0.4159 C   0  0  0  0  0  0  0  0  0  0  0  0
    6.4457    0.0349    0.7085 C   0  0  0  0  0  0  0  0  0  0  0  0
    5.3980    1.4035   -0.8819 C   0  0  0  0  0  0  0  0  0  0  0  0
   -6.2339    1.4117   -0.8176 C   0  0  0  0  0  0  0  0  0  0  0  0
   -4.9167    1.3803   -1.2632 C   0  0  0  0  0  0  0  0  0  0  0  0
    2.7760   -0.3901    1.0646 C   0  0  0  0  0  0  0  0  0  0  0  0
    4.0882    0.0462    0.6138 C   0  0  0  0  0  0  0  0  0  0  0  0
    6.5630    0.9366   -0.3113 C   0  0  0  0  0  0  0  0  0  0  0  0
    2.2396   -1.6085    0.3561 C   0  0  0  0  0  0  0  0  0  0  0  0
   -6.5399    1.0187    0.4604 C   0  0  0  0  0  0  0  0  0  0  0  0
   -0.2622   -1.5962   -1.0467 C   0  0  0  0  0  0  0  0  0  0  0  0
   -0.3984    0.5188    0.3137 C   0  0  1  0  0  0  0  0  0  0  0  0
   -1.7771    1.4723    0.5377 C   0  0  2  0  0  0  0  0  0  0  0  0
   -0.9597   -0.1154   -1.1911 C   0  0  2  0  0  0  0  0  0  0  0  0
    2.0987   -1.3889   -1.1001 C   0  0  0  0  0  0  0  0  0  0  0  0
   -2.5059    0.9378   -0.9489 C   0  0  2  0  0  0  0  0  0  0  0  0
   -0.6164   -2.3231    0.0560 C   0  0  0  0  0  0  0  0  0  0  0  0
   -4.2502    0.5830    0.8039 C   0  0  0  0  0  0  0  0  0  0  0  0
    3.0577   -2.7802    0.6374 N   0  0  0  0  0  0  0  0  0  0  0  0
   -5.5252    0.6129    1.2366 N   0  0  0  0  0  0  0  0  0  0  0  0
    0.9657   -1.4030   -1.6148 N   0  0  0  0  0  0  0  0  0  0  0  0
   -3.9944    0.9568   -0.3971 N   0  0  0  0  0  0  0  0  0  0  0  0
    7.8218    1.3766   -0.7672 O   0  0  0  0  0  0  0  0  0  0  0  0
   -7.8673    1.0521    0.9042 O   0  0  0  0  0  0  0  0  0  0  0  0
    0.5323    1.4948   -0.3271 O   0  0  0  0  0  0  0  0  0  0  0  0
   -1.3579    2.7657   -0.0693 O   0  0  0  0  0  0  0  0  0  0  0  0
    3.2331   -1.1626   -1.9109 O   0  0  0  0  0  0  0  0  0  0  0  0
   -1.8906   -2.4145    0.2319 O   0  0  0  0  0  0  0  0  0  0  0  0
    0.0067   -3.0150    1.0767 O   0  0  0  0  0  0  0  0  0  0  0  0
   -3.2887    0.2007    1.5332 O   0  0  0  0  0  0  0  0  0  0  0  0
   -2.2699   -0.5324   -0.5404 O   0  0  0  0  0  0  0  0  0  0  0  0
  1  3  2  0
  1  8  1  0
  2  4  1  0
  2  8  2  0
  3  9  1  0
  4  9  2  0
  5  6  2  0
  5 11  1  0
  6 23  1  0
  7  8  1  0
  7 10  1  0
  9 24  1  0
 10 16  1  0
 10 20  1  0
 11 21  2  0
 11 25  1  0
 15 12  1  1
 12 18  1  0
 12 22  1  0
 13 14  1  0
 13 15  1  0
 13 26  1  6
 14 17  1  0
 14 27  1  6
 15 32  1  0
 16 22  2  3
 16 28  1  0
 17 23  1  1
 17 32  1  0
 18 29  2  0
 18 30  1  0
 19 21  1  0
 19 23  1  0
 19 31  2  0
M  END
>  <InChI>  (5) 
InChI=1S/C19H22N4O9/c20-10(7-8-1-3-9(24)4-2-8)16(28)22-12(18(29)30)15-13(26)14(27)17(32-15)23-6-5-11(25)21-19(23)31/h1-6,10,12-15,17,24,26-27H,7,20H2,(H,22,28)(H,29,30)(H,21,25,31)/t10?,12?,13-,14+,15+,17+/m0/s1

>  <Activity>  (5) 
No data

$$$$
P23316_5
     RDKit          3D

 32 34  0  0  1  0  0  0  0  0999 V2000
   -6.8660   -1.1296   -1.5165 C   0  0  0  0  0  0  0  0  0  0  0  0
   -6.1094   -0.8294   -0.4065 C   0  0  0  0  0  0  0  0  0  0  0  0
   -6.5389   -0.6537   -2.7789 C   0  0  0  0  0  0  0  0  0  0  0  0
    5.9142   -1.1773   -1.0391 C   0  0  0  0  0  0  0  0  0  0  0  0
    4.8766   -0.8721   -0.1352 C   0  0  0  0  0  0  0  0  0  0  0  0
   -4.6899    0.4243   -1.7993 C   0  0  0  0  0  0  0  0  0  0  0  0
   -4.1331    0.3262    0.6233 C   0  0  0  0  0  0  0  0  0  0  0  0
   -4.9931   -0.0353   -0.5359 C   0  0  0  0  0  0  0  0  0  0  0  0
   -5.4370    0.1328   -2.9200 C   0  0  0  0  0  0  0  0  0  0  0  0
   -2.9973   -0.8482    0.7112 C   0  0  1  0  0  0  0  0  0  0  0  0
    6.2527   -0.2347   -1.9813 C   0  0  0  0  0  0  0  0  0  0  0  0
   -0.2850   -0.2298    0.5195 C   0  0  1  0  0  0  0  0  0  0  0  0
    1.0509    1.7513    0.9746 C   0  0  1  0  0  0  0  0  0  0  0  0
    2.5521    1.9994    0.2612 C   0  0  2  0  0  0  0  0  0  0  0  0
    1.2591    0.0861    1.2193 C   0  0  2  0  0  0  0  0  0  0  0  0
   -2.2429   -0.2451    1.9780 C   0  0  0  0  0  0  0  0  0  0  0  0
    3.1644    0.5257    0.8009 C   0  0  2  0  0  0  0  0  0  0  0  0
   -0.1393   -1.8015    0.6392 C   0  0  0  0  0  0  0  0  0  0  0  0
    4.6049    1.1618   -1.1124 C   0  0  0  0  0  0  0  0  0  0  0  0
   -5.0849    0.6129   -4.1171 F   0  0  0  0  0  0  0  0  0  0  0  0
   -3.9081   -1.8168    1.5347 N   0  0  0  0  0  0  0  0  0  0  0  0
    5.5967    0.9238   -2.0096 N   0  0  0  0  0  0  0  0  0  0  0  0
   -1.0120    0.0253    1.8598 N   0  0  0  0  0  0  0  0  0  0  0  0
    4.2484    0.2987   -0.2006 N   0  0  0  0  0  0  0  0  0  0  0  0
    7.2873   -0.5020   -2.9055 O   0  0  0  0  0  0  0  0  0  0  0  0
    1.3511    2.0183    2.4052 O   0  0  0  0  0  0  0  0  0  0  0  0
    3.2433    2.8016    1.2945 O   0  0  0  0  0  0  0  0  0  0  0  0
   -2.8860   -0.0254    3.1454 O   0  0  0  0  0  0  0  0  0  0  0  0
    0.4523   -2.2757   -0.3834 O   0  0  0  0  0  0  0  0  0  0  0  0
   -0.5848   -2.5079    1.6807 O   0  0  0  0  0  0  0  0  0  0  0  0
    4.0088    2.2346   -1.1509 O   0  0  0  0  0  0  0  0  0  0  0  0
    2.0447   -0.1384   -0.0172 O   0  0  0  0  0  0  0  0  0  0  0  0
  1  2  2  0
  1  3  1  0
  2  8  1  0
  3  9  2  0
  4  5  2  0
  4 11  1  0
  5 24  1  0
  6  8  2  0
  6  9  1  0
  7  8  1  0
  7 10  1  0
  9 20  1  0
 10 16  1  0
 10 21  1  1
 11 22  2  0
 11 25  1  0
 12 15  1  0
 12 18  1  0
 12 23  1  1
 13 14  1  0
 13 15  1  0
 13 26  1  1
 14 17  1  0
 14 27  1  1
 15 32  1  6
 16 23  2  3
 16 28  1  0
 17 24  1  6
 17 32  1  0
 18 29  2  0
 18 30  1  0
 19 22  1  0
 19 24  1  0
 19 31  2  0
M  END
>  <InChI>  (6) 
InChI=1S/C19H21FN4O8/c20-9-3-1-2-8(6-9)7-10(21)16(28)23-12(18(29)30)15-13(26)14(27)17(32-15)24-5-4-11(25)22-19(24)31/h1-6,10,12-15,17,26-27H,7,21H2,(H,23,28)(H,29,30)(H,22,25,31)/t10-,12-,13-,14+,15+,17+/m0/s1

>  <Activity>  (6) 
No data

$$$$
P23316_6
     RDKit          3D

 24 25  0  0  1  0  0  0  0  0999 V2000
   -0.2391    3.3188    0.9806 C   0  0  0  0  0  0  0  0  0  0  0  0
   -0.3494    2.4463   -1.3667 C   0  0  0  0  0  0  0  0  0  0  0  0
    6.0649   -1.1534   -1.8313 C   0  0  0  0  0  0  0  0  0  0  0  0
    6.7451   -1.2810    0.5781 C   0  0  0  0  0  0  0  0  0  0  0  0
    6.7463    0.8701   -0.5648 C   0  0  0  0  0  0  0  0  0  0  0  0
    2.1223    0.2648    0.4960 C   0  0  0  0  0  0  0  0  0  0  0  0
    3.4866   -0.0031    0.1576 C   0  0  0  0  0  0  0  0  0  0  0  0
    1.5835    0.1062    1.6866 C   0  0  0  0  0  0  0  0  0  0  0  0
   -1.9013   -1.2655   -2.0723 C   0  0  0  0  0  0  0  0  0  0  0  0
   -3.1237   -1.5368   -1.4663 C   0  0  0  0  0  0  0  0  0  0  0  0
   -1.0433   -0.4547   -1.3716 C   0  0  0  0  0  0  0  0  0  0  0  0
   -2.9049    0.3490    1.7679 C   0  0  0  0  0  0  0  0  0  0  0  0
   -4.2243    0.0107    2.2992 C   0  0  0  0  0  0  0  0  0  0  0  0
    4.6322   -0.2113   -0.1373 C   0  0  0  0  0  0  0  0  0  0  0  0
    0.1362    0.4458    1.8213 C   0  0  0  0  0  0  0  0  0  0  0  0
    0.0657    2.1711    0.0495 C   0  0  0  0  0  0  0  0  0  0  0  0
   -2.5540   -0.1971    0.4552 C   0  0  0  0  0  0  0  0  0  0  0  0
   -3.4424   -1.0201   -0.2422 C   0  0  0  0  0  0  0  0  0  0  0  0
   -1.3284    0.0842   -0.1359 C   0  0  0  0  0  0  0  0  0  0  0  0
   -5.0716   -0.8512    1.4975 C   0  0  0  0  0  0  0  0  0  0  0  0
    6.0478   -0.4926   -0.4919 C   0  0  0  0  0  0  0  0  0  0  0  0
   -4.6904   -1.2989    0.3568 N   0  0  0  0  0  0  0  0  0  0  0  0
   -0.3982    0.9088    0.5399 N   0  0  0  0  0  0  0  0  0  0  0  0
   -6.3595   -1.2101    1.9885 O   0  0  0  0  0  0  0  0  0  0  0  0
  1 16  1  0
  2 16  1  0
  3 21  1  0
  4 21  1  0
  5 21  1  0
  6  7  1  0
  6  8  2  0
  7 14  3  0
  8 15  1  0
  9 10  2  0
  9 11  1  0
 10 18  1  0
 11 19  2  0
 12 13  1  0
 12 17  1  0
 13 20  1  0
 14 21  1  0
 15 23  1  0
 16 23  1  0
 17 18  2  0
 17 19  1  0
 18 22  1  0
 19 23  1  0
 20 22  2  0
 20 24  1  0
M  END
>  <InChI>  (7) 
InChI=1S/C21H28N2O/c1-16(2)23(15-8-6-7-14-21(3,4)5)19-11-9-10-18-17(19)12-13-20(24)22-18/h6,8-11,16H,12-13,15H2,1-5H3,(H,22,24)/b8-6+

>  <Activity>  (7) 
No data

$$$$
P23316_7
     RDKit          3D

 26 27  0  0  1  0  0  0  0  0999 V2000
   -1.6169    5.6990   -0.4106 C   0  0  0  0  0  0  0  0  0  0  0  0
    4.8001   -2.6433    2.9260 C   0  0  0  0  0  0  0  0  0  0  0  0
    5.3921   -0.4694    3.9627 C   0  0  0  0  0  0  0  0  0  0  0  0
    6.0420   -0.8658    1.6479 C   0  0  0  0  0  0  0  0  0  0  0  0
   -1.8400    4.9260   -1.7012 C   0  0  0  0  0  0  0  0  0  0  0  0
   -1.6483    3.4357   -1.5247 C   0  0  0  0  0  0  0  0  0  0  0  0
    1.3843    0.3277    1.2698 C   0  0  0  0  0  0  0  0  0  0  0  0
    2.6182   -0.1946    1.7729 C   0  0  0  0  0  0  0  0  0  0  0  0
   -0.2230    3.2296   -1.0526 C   0  0  0  0  0  0  0  0  0  0  0  0
    0.5475    1.0521    2.0293 C   0  0  0  0  0  0  0  0  0  0  0  0
   -4.3005   -0.3620   -0.1338 C   0  0  0  0  0  0  0  0  0  0  0  0
   -3.9333   -1.4866   -0.8619 C   0  0  0  0  0  0  0  0  0  0  0  0
   -3.2389    0.5085    0.1577 C   0  0  0  0  0  0  0  0  0  0  0  0
   -0.2541   -1.0433   -1.3517 C   0  0  0  0  0  0  0  0  0  0  0  0
   -0.0411   -2.2696   -2.1287 C   0  0  0  0  0  0  0  0  0  0  0  0
    3.6899   -0.6505    2.1877 C   0  0  0  0  0  0  0  0  0  0  0  0
    0.0045    1.7725   -0.8767 C   0  0  0  0  0  0  0  0  0  0  0  0
   -0.7236    1.5836    1.4874 C   0  0  0  0  0  0  0  0  0  0  0  0
   -1.6276   -0.8274   -0.9451 C   0  0  0  0  0  0  0  0  0  0  0  0
   -2.6499   -1.7244   -1.2599 C   0  0  0  0  0  0  0  0  0  0  0  0
   -1.9604    0.3120   -0.2158 C   0  0  0  0  0  0  0  0  0  0  0  0
   -1.1621   -3.1423   -2.4100 C   0  0  0  0  0  0  0  0  0  0  0  0
    4.9639   -1.1680    2.6650 C   0  0  0  0  0  0  0  0  0  0  0  0
   -2.3387   -2.8871   -2.0116 N   0  0  0  0  0  0  0  0  0  0  0  0
   -0.8927    1.2074    0.1023 N   0  0  0  0  0  0  0  0  0  0  0  0
   -0.9917   -4.3199   -3.1426 O   0  0  0  0  0  0  0  0  0  0  0  0
  1  5  1  0
  2 23  1  0
  3 23  1  0
  4 23  1  0
  5  6  1  0
  6  9  1  0
  7  8  1  0
  7 10  2  0
  8 16  3  0
  9 17  1  0
 10 18  1  0
 11 12  2  0
 11 13  1  0
 12 20  1  0
 13 21  2  0
 14 15  1  0
 14 19  1  0
 15 22  1  0
 16 23  1  0
 17 25  1  0
 18 25  1  0
 19 20  2  0
 19 21  1  0
 20 24  1  0
 21 25  1  0
 22 24  2  0
 22 26  1  0
M  END
>  <InChI>  (8) 
InChI=1S/C23H32N2O/c1-5-6-9-17-25(18-10-7-8-16-23(2,3)4)21-13-11-12-20-19(21)14-15-22(26)24-20/h7,10-13H,5-6,9,14-15,17-18H2,1-4H3,(H,24,26)/b10-7+

>  <Activity>  (8) 
No data

$$$$
P23316_8
     RDKit          3D

 31 32  0  0  1  0  0  0  0  0999 V2000
    5.6074   -0.6616    0.5777 C   0  0  0  0  0  0  0  0  0  0  0  0
    4.1839   -1.1460    0.5143 C   0  0  0  0  0  0  0  0  0  0  0  0
   -6.3358    0.6386    1.4393 C   0  0  0  0  0  0  0  0  0  0  0  0
    5.6928    0.8482    0.5239 C   0  0  0  0  0  0  0  0  0  0  0  0
   -5.0357    1.0864    1.1825 C   0  0  0  0  0  0  0  0  0  0  0  0
    3.6178   -0.5688   -0.9436 C   0  0  2  0  0  0  0  0  0  0  0  0
   -6.9509   -0.1983    0.5347 C   0  0  0  0  0  0  0  0  0  0  0  0
   -0.1914   -0.9657   -0.6208 C   0  0  2  0  0  0  0  0  0  0  0  0
   -0.8156    1.0369    0.8334 C   0  0  1  0  0  0  0  0  0  0  0  0
   -2.4060    0.7939    1.4100 C   0  0  2  0  0  0  0  0  0  0  0  0
   -1.0964    0.4716   -0.7429 C   0  0  2  0  0  0  0  0  0  0  0  0
    2.1375   -1.2098   -0.7511 C   0  0  0  0  0  0  0  0  0  0  0  0
   -2.9859    1.2249   -0.1674 C   0  0  2  0  0  0  0  0  0  0  0  0
   -0.1212   -1.1210    0.9369 C   0  0  0  0  0  0  0  0  0  0  0  0
    7.9823    0.8482   -0.5140 C   0  0  0  0  0  0  0  0  0  0  0  0
   -4.9891   -0.0956   -0.7926 C   0  0  0  0  0  0  0  0  0  0  0  0
    4.2033   -1.8084   -1.7546 N   0  0  0  0  0  0  0  0  0  0  0  0
    7.6684   -0.2472   -1.1292 N   0  0  0  0  0  0  0  0  0  0  0  0
    7.1234    1.1860    0.5931 N   0  0  0  0  0  0  0  0  0  0  0  0
   -6.2579   -0.5402   -0.5548 N   0  0  0  0  0  0  0  0  0  0  0  0
    1.2017   -0.2969   -0.8114 N   0  0  0  0  0  0  0  0  0  0  0  0
   -4.4143    0.7060    0.0839 N   0  0  0  0  0  0  0  0  0  0  0  0
   -8.2463   -0.6764    0.7377 O   0  0  0  0  0  0  0  0  0  0  0  0
   -1.0128    2.4653    0.3667 O   0  0  0  0  0  0  0  0  0  0  0  0
   -2.6118    2.1316    2.0537 O   0  0  0  0  0  0  0  0  0  0  0  0
    2.0000   -2.5265   -0.5594 O   0  0  0  0  0  0  0  0  0  0  0  0
   -1.1668   -1.6650    1.3952 O   0  0  0  0  0  0  0  0  0  0  0  0
    0.9340   -0.7173    1.6765 O   0  0  0  0  0  0  0  0  0  0  0  0
    9.0450    1.6175   -0.8893 O   0  0  0  0  0  0  0  0  0  0  0  0
   -4.3525   -0.4261   -1.8198 O   0  0  0  0  0  0  0  0  0  0  0  0
   -2.4072   -0.1843   -0.5227 O   0  0  0  0  0  0  0  0  0  0  0  0
  1  2  1  0
  1  4  1  0
  2  6  1  0
  3  5  2  0
  3  7  1  0
  4 19  1  0
  5 22  1  0
  6 12  1  0
  6 17  1  6
  7 20  2  0
  7 23  1  0
  8 11  1  0
  8 14  1  0
  8 21  1  1
  9 10  1  0
  9 11  1  0
  9 24  1  6
 10 13  1  0
 10 25  1  1
 11 31  1  1
 12 21  2  3
 12 26  1  0
 13 22  1  1
 13 31  1  0
 14 27  2  0
 14 28  1  0
 15 18  2  0
 15 19  1  0
 15 29  1  0
 16 20  1  0
 16 22  1  0
 16 30  2  0
M  END
>  <InChI>  (9) 
InChI=1S/C16H24N6O9/c17-6(2-1-4-19-15(18)29)12(26)21-8(14(27)28)11-9(24)10(25)13(31-11)22-5-3-7(23)20-16(22)30/h3,5-6,8-11,13,24-25H,1-2,4,17H2,(H,21,26)(H,27,28)(H3,18,19,29)(H,20,23,30)/t6-,8-,9+,10-,11-,13-/m1/s1

>  <Activity>  (9) 
No data

$$$$
P23316_9
     RDKit          2D

 34 36  0  0  1  0  0  0  0  0999 V2000
    1.5000    0.0000    0.0000 C   0  0  0  0  0  0  0  0  0  0  0  0
   -0.7500    1.2990    0.0000 C   0  0  0  0  0  0  0  0  0  0  0  0
    0.7500   -1.2990    0.0000 C   0  0  0  0  0  0  0  0  0  0  0  0
   -1.5000    0.0000    0.0000 C   0  0  0  0  0  0  0  0  0  0  0  0
    9.6546   12.7344    0.0000 C   0  0  0  0  0  0  0  0  0  0  0  0
    9.8113   11.2427    0.0000 C   0  0  0  0  0  0  0  0  0  0  0  0
    1.5000    2.5981    0.0000 C   0  0  0  0  0  0  0  0  0  0  0  0
    0.7500    1.2990    0.0000 C   0  0  0  0  0  0  0  0  0  0  0  0
   -0.7500   -1.2990    0.0000 C   0  0  0  0  0  0  0  0  0  0  0  0
    3.0000    2.5981    0.0000 C   0  0  0  0  0  0  0  0  0  0  0  0
    8.2842   13.3446    0.0000 C   0  0  0  0  0  0  0  0  0  0  0  0
    3.7500    3.8971    0.0000 C   0  0  0  0  0  0  0  0  0  0  0  0
    7.5000    5.1962    0.0000 C   0  0  0  0  0  0  0  0  0  0  0  0
    9.7418    6.6520    0.0000 C   0  0  0  0  0  0  0  0  0  0  0  0
   10.0537    8.1192    0.0000 C   0  0  0  0  0  0  0  0  0  0  0  0
    8.2500    6.4952    0.0000 C   0  0  0  0  0  0  0  0  0  0  0  0
    5.2500    3.8971    0.0000 C   0  0  0  0  0  0  0  0  0  0  0  0
    8.7546    8.8692    0.0000 C   0  0  0  0  0  0  0  0  0  0  0  0
    8.2500    3.8971    0.0000 C   0  0  0  0  0  0  0  0  0  0  0  0
    7.2275   10.9711    0.0000 C   0  0  0  0  0  0  0  0  0  0  0  0
    3.0000    5.1962    0.0000 N   0  0  0  0  0  0  0  0  0  0  0  0
    7.0707   12.4629    0.0000 N   0  0  0  0  0  0  0  0  0  0  0  0
    6.0000    5.1962    0.0000 N   0  0  0  0  0  0  0  0  0  0  0  0
    8.5978   10.3610    0.0000 N   0  0  0  0  0  0  0  0  0  0  0  0
   -1.5000   -2.5981    0.0000 O   0  0  0  0  0  0  0  0  0  0  0  0
    3.7500    1.2990    0.0000 O   0  0  0  0  0  0  0  0  0  0  0  0
    8.1274   14.8363    0.0000 O   0  0  0  0  0  0  0  0  0  0  0  0
   10.7455    5.5373    0.0000 O   0  0  0  0  0  0  0  0  0  0  0  0
   11.4240    8.7293    0.0000 O   0  0  0  0  0  0  0  0  0  0  0  0
    6.0000    2.5981    0.0000 O   0  0  0  0  0  0  0  0  0  0  0  0
    7.5000    2.5981    0.0000 O   0  0  0  0  0  0  0  0  0  0  0  0
    9.7500    3.8971    0.0000 O   0  0  0  0  0  0  0  0  0  0  0  0
    6.0140   10.0894    0.0000 O   0  0  0  0  0  0  0  0  0  0  0  0
    7.6399    7.8655    0.0000 O   0  0  0  0  0  0  0  0  0  0  0  0
  1  3  2  0
  1  8  1  0
  2  4  1  0
  2  8  2  0
  3  9  1  0
  4  9  2  0
  5  6  2  0
  5 11  1  0
  6 24  1  0
  7  8  1  0
  7 10  1  0
  9 25  1  0
 10 12  1  0
 10 26  1  6
 11 22  2  0
 11 27  1  0
 12 17  1  0
 12 21  1  1
 13 16  1  0
 13 19  1  0
 13 23  1  6
 14 15  1  0
 14 16  1  0
 14 28  1  6
 15 18  1  0
 15 29  1  6
 16 34  1  1
 17 23  2  3
 17 30  1  0
 18 24  1  1
 18 34  1  0
 19 31  2  0
 19 32  1  0
 20 22  1  0
 20 24  1  0
 20 33  2  0
M  END
>  <InChI>  (10) 
InChI=1S/C20H24N4O10/c21-12(10(26)7-8-1-3-9(25)4-2-8)17(30)23-13(19(31)32)16-14(28)15(29)18(34-16)24-6-5-11(27)22-20(24)33/h1-6,10,12-16,18,25-26,28-29H,7,21H2,(H,23,30)(H,31,32)(H,22,27,33)/t10-,12-,13-,14+,15-,16-,18-/m1/s1

>  <Activity>  (10) 
No data

$$$$
P23316_10
     RDKit          2D

 35 37  0  0  1  0  0  0  0  0999 V2000
   -3.7500   -3.8971    0.0000 C   0  0  0  0  0  0  0  0  0  0  0  0
    1.5000    0.0000    0.0000 C   0  0  0  0  0  0  0  0  0  0  0  0
    0.7500   -1.2990    0.0000 C   0  0  0  0  0  0  0  0  0  0  0  0
   -0.7500    1.2990    0.0000 C   0  0  0  0  0  0  0  0  0  0  0  0
  -11.7358    5.0004    0.0000 C   0  0  0  0  0  0  0  0  0  0  0  0
  -13.9776    6.4562    0.0000 C   0  0  0  0  0  0  0  0  0  0  0  0
   -3.0000   -2.5981    0.0000 C   0  0  0  0  0  0  0  0  0  0  0  0
  -13.2276    5.1572    0.0000 C   0  0  0  0  0  0  0  0  0  0  0  0
    0.7500    1.2990    0.0000 C   0  0  0  0  0  0  0  0  0  0  0  0
   -0.7500   -1.2990    0.0000 C   0  0  0  0  0  0  0  0  0  0  0  0
   -3.7500   -1.2990    0.0000 C   0  0  0  0  0  0  0  0  0  0  0  0
   -7.5000    0.0000    0.0000 C   0  0  0  0  0  0  0  0  0  0  0  0
   -1.5000   -2.5981    0.0000 C   0  0  0  0  0  0  0  0  0  0  0  0
   -7.6399    2.6694    0.0000 C   0  0  0  0  0  0  0  0  0  0  0  0
   -8.7546    3.6731    0.0000 C   0  0  0  0  0  0  0  0  0  0  0  0
   -8.2500    1.2990    0.0000 C   0  0  0  0  0  0  0  0  0  0  0  0
   -5.2500   -1.2990    0.0000 C   0  0  0  0  0  0  0  0  0  0  0  0
  -10.0537    2.9231    0.0000 C   0  0  0  0  0  0  0  0  0  0  0  0
   -8.2500   -1.2990    0.0000 C   0  0  0  0  0  0  0  0  0  0  0  0
  -12.7230    2.7832    0.0000 C   0  0  0  0  0  0  0  0  0  0  0  0
   -3.0000    0.0000    0.0000 N   0  0  0  0  0  0  0  0  0  0  0  0
   -1.5000    0.0000    0.0000 N   0  0  0  0  0  0  0  0  0  0  0  0
  -13.8377    3.7869    0.0000 N   0  0  0  0  0  0  0  0  0  0  0  0
   -6.0000    0.0000    0.0000 N   0  0  0  0  0  0  0  0  0  0  0  0
  -11.4240    3.5332    0.0000 N   0  0  0  0  0  0  0  0  0  0  0  0
  -13.2276    7.7552    0.0000 O   0  0  0  0  0  0  0  0  0  0  0  0
    1.5000    2.5981    0.0000 O   0  0  0  0  0  0  0  0  0  0  0  0
   -0.7500   -3.8971    0.0000 O   0  0  0  0  0  0  0  0  0  0  0  0
   -6.1727    2.9812    0.0000 O   0  0  0  0  0  0  0  0  0  0  0  0
   -8.5978    5.1648    0.0000 O   0  0  0  0  0  0  0  0  0  0  0  0
   -6.0000   -2.5981    0.0000 O   0  0  0  0  0  0  0  0  0  0  0  0
   -7.5000   -2.5981    0.0000 O   0  0  0  0  0  0  0  0  0  0  0  0
   -9.7500   -1.2990    0.0000 O   0  0  0  0  0  0  0  0  0  0  0  0
  -12.8798    1.2914    0.0000 O   0  0  0  0  0  0  0  0  0  0  0  0
   -9.7418    1.4558    0.0000 O   0  0  0  0  0  0  0  0  0  0  0  0
  7  1  1  1
  2  3  2  0
  2  9  1  0
  3 10  1  0
  4  9  2  0
  4 22  1  0
  5  8  2  0
  5 25  1  0
  6  8  1  0
  6 26  2  0
  7 11  1  0
  7 13  1  0
  8 23  1  0
  9 27  1  0
 10 13  1  0
 10 22  2  0
 11 17  1  0
 11 21  1  1
 12 16  1  0
 12 19  1  0
 12 24  1  6
 13 28  1  1
 14 15  1  0
 14 16  1  0
 14 29  1  6
 15 18  1  0
 15 30  1  6
 16 35  1  1
 17 24  2  3
 17 31  1  0
 18 25  1  1
 18 35  1  0
 19 32  2  0
 19 33  1  0
 20 23  2  0
 20 25  1  0
 20 34  1  0
M  END
>  <InChI>  (11) 
InChI=1S/C20H25N5O10/c1-7(13(28)10-3-2-9(27)4-22-10)11(21)17(31)24-12(19(32)33)16-14(29)15(30)18(35-16)25-5-8(6-26)23-20(25)34/h2-7,11-16,18,27-30H,21H2,1H3,(H,23,34)(H,24,31)(H,32,33)/t7-,11-,12-,13-,14-,15+,16+,18+/m0/s1

>  <Activity>  (11) 
No data

$$$$
P23316_11
     RDKit          2D

 26 27  0  0  1  0  0  0  0  0999 V2000
   -7.7282   -9.0360    0.0000 C   0  0  0  0  0  0  0  0  0  0  0  0
   -3.6172   -7.2057    0.0000 C   0  0  0  0  0  0  0  0  0  0  0  0
    1.5000    0.0000    0.0000 C   0  0  0  0  0  0  0  0  0  0  0  0
    0.7500   -1.2990    0.0000 C   0  0  0  0  0  0  0  0  0  0  0  0
   -6.3579   -8.4259    0.0000 C   0  0  0  0  0  0  0  0  0  0  0  0
    0.7500    1.2990    0.0000 C   0  0  0  0  0  0  0  0  0  0  0  0
   -4.6740   -4.8322    0.0000 C   0  0  0  0  0  0  0  0  0  0  0  0
   -2.0046   -4.9721    0.0000 C   0  0  0  0  0  0  0  0  0  0  0  0
   -0.8899   -3.9684    0.0000 C   0  0  0  0  0  0  0  0  0  0  0  0
   -3.3037   -4.2221    0.0000 C   0  0  0  0  0  0  0  0  0  0  0  0
   -6.2011   -6.9341    0.0000 C   0  0  0  0  0  0  0  0  0  0  0  0
   -1.5000   -2.5981    0.0000 C   0  0  0  0  0  0  0  0  0  0  0  0
   -5.8875   -3.9505    0.0000 C   0  0  0  0  0  0  0  0  0  0  0  0
   -1.5000    0.0000    0.0000 C   0  0  0  0  0  0  0  0  0  0  0  0
   -5.1443   -9.3075    0.0000 N   0  0  0  0  0  0  0  0  0  0  0  0
   -0.7500    1.2990    0.0000 N   0  0  0  0  0  0  0  0  0  0  0  0
   -4.8308   -6.3240    0.0000 N   0  0  0  0  0  0  0  0  0  0  0  0
   -0.7500   -1.2990    0.0000 N   0  0  0  0  0  0  0  0  0  0  0  0
    1.5000    2.5981    0.0000 O   0  0  0  0  0  0  0  0  0  0  0  0
   -1.8478   -6.4639    0.0000 O   0  0  0  0  0  0  0  0  0  0  0  0
    0.5773   -4.2803    0.0000 O   0  0  0  0  0  0  0  0  0  0  0  0
   -7.4146   -6.0524    0.0000 O   0  0  0  0  0  0  0  0  0  0  0  0
   -5.7307   -2.4587    0.0000 O   0  0  0  0  0  0  0  0  0  0  0  0
   -7.2578   -4.5606    0.0000 O   0  0  0  0  0  0  0  0  0  0  0  0
   -3.0000    0.0000    0.0000 O   0  0  0  0  0  0  0  0  0  0  0  0
   -2.9918   -2.7549    0.0000 O   0  0  0  0  0  0  0  0  0  0  0  0
  5  1  1  1
  2 17  1  0
  3  4  2  0
  3  6  1  0
  4 18  1  0
  5 11  1  0
  5 15  1  0
  6 16  2  0
  6 19  1  0
  7 10  1  0
  7 13  1  1
  7 17  1  0
  8  9  1  0
  8 10  1  0
  8 20  1  6
  9 12  1  0
  9 21  1  6
 10 26  1  1
 11 17  1  0
 11 22  2  0
 12 18  1  1
 12 26  1  0
 13 23  2  0
 13 24  1  0
 14 16  1  0
 14 18  1  0
 14 25  2  0
M  END
>  <InChI>  (12) 
InChI=1S/C14H20N4O8/c1-5(15)11(22)17(2)7(13(23)24)10-8(20)9(21)12(26-10)18-4-3-6(19)16-14(18)25/h3-5,7-10,12,20-21H,15H2,1-2H3,(H,23,24)(H,16,19,25)/t5-,7+,8-,9+,10+,12+/m0/s1

>  <Activity>  (12) 
No data

$$$$
P23316_12
     RDKit          2D

 35 37  0  0  1  0  0  0  0  0999 V2000
   -3.7500   -3.8971    0.0000 C   0  0  0  0  0  0  0  0  0  0  0  0
    1.5000    0.0000    0.0000 C   0  0  0  0  0  0  0  0  0  0  0  0
    0.7500   -1.2990    0.0000 C   0  0  0  0  0  0  0  0  0  0  0  0
  -12.9511    5.6350    0.0000 C   0  0  0  0  0  0  0  0  0  0  0  0
  -11.5808    5.0249    0.0000 C   0  0  0  0  0  0  0  0  0  0  0  0
   -0.7500    1.2990    0.0000 C   0  0  0  0  0  0  0  0  0  0  0  0
   -3.0000   -2.5981    0.0000 C   0  0  0  0  0  0  0  0  0  0  0  0
    0.7500    1.2990    0.0000 C   0  0  0  0  0  0  0  0  0  0  0  0
   -0.7500   -1.2990    0.0000 C   0  0  0  0  0  0  0  0  0  0  0  0
  -14.1646    4.7534    0.0000 C   0  0  0  0  0  0  0  0  0  0  0  0
   -3.7500   -1.2990    0.0000 C   0  0  0  0  0  0  0  0  0  0  0  0
   -7.5000    0.0000    0.0000 C   0  0  0  0  0  0  0  0  0  0  0  0
   -1.5000   -2.5981    0.0000 C   0  0  0  0  0  0  0  0  0  0  0  0
   -7.6399    2.6694    0.0000 C   0  0  0  0  0  0  0  0  0  0  0  0
   -8.7546    3.6731    0.0000 C   0  0  0  0  0  0  0  0  0  0  0  0
   -8.2500    1.2990    0.0000 C   0  0  0  0  0  0  0  0  0  0  0  0
   -5.2500   -1.2990    0.0000 C   0  0  0  0  0  0  0  0  0  0  0  0
  -10.0537    2.9231    0.0000 C   0  0  0  0  0  0  0  0  0  0  0  0
   -8.2500   -1.2990    0.0000 C   0  0  0  0  0  0  0  0  0  0  0  0
  -12.6375    2.6515    0.0000 C   0  0  0  0  0  0  0  0  0  0  0  0
   -3.0000    0.0000    0.0000 N   0  0  0  0  0  0  0  0  0  0  0  0
   -1.5000    0.0000    0.0000 N   0  0  0  0  0  0  0  0  0  0  0  0
  -14.0078    3.2616    0.0000 N   0  0  0  0  0  0  0  0  0  0  0  0
   -6.0000    0.0000    0.0000 N   0  0  0  0  0  0  0  0  0  0  0  0
  -11.4240    3.5332    0.0000 N   0  0  0  0  0  0  0  0  0  0  0  0
    1.5000    2.5981    0.0000 O   0  0  0  0  0  0  0  0  0  0  0  0
  -15.5349    5.3635    0.0000 O   0  0  0  0  0  0  0  0  0  0  0  0
   -0.7500   -3.8971    0.0000 O   0  0  0  0  0  0  0  0  0  0  0  0
   -6.1727    2.9812    0.0000 O   0  0  0  0  0  0  0  0  0  0  0  0
   -8.5978    5.1648    0.0000 O   0  0  0  0  0  0  0  0  0  0  0  0
   -6.0000   -2.5981    0.0000 O   0  0  0  0  0  0  0  0  0  0  0  0
   -7.5000   -2.5981    0.0000 O   0  0  0  0  0  0  0  0  0  0  0  0
   -9.7500   -1.2990    0.0000 O   0  0  0  0  0  0  0  0  0  0  0  0
  -12.4807    1.1597    0.0000 O   0  0  0  0  0  0  0  0  0  0  0  0
   -9.7418    1.4558    0.0000 O   0  0  0  0  0  0  0  0  0  0  0  0
  7  1  1  1
  2  3  2  0
  2  8  1  0
  3  9  1  0
  4  5  2  0
  4 10  1  0
  5 25  1  0
  6  8  2  0
  6 22  1  0
  7 11  1  0
  7 13  1  0
  8 26  1  0
  9 13  1  0
  9 22  2  0
 10 23  2  0
 10 27  1  0
 11 17  1  0
 11 21  1  1
 12 16  1  0
 12 19  1  0
 12 24  1  6
 13 28  1  1
 14 15  1  0
 14 16  1  0
 14 29  1  6
 15 18  1  0
 15 30  1  6
 16 35  1  1
 17 24  2  3
 17 31  1  0
 18 25  1  1
 18 35  1  0
 19 32  2  0
 19 33  1  0
 20 23  1  0
 20 25  1  0
 20 34  2  0
M  END
>  <InChI>  (13) 
InChI=1S/C20H25N5O10/c1-7(13(28)9-3-2-8(26)6-22-9)11(21)17(31)24-12(19(32)33)16-14(29)15(30)18(35-16)25-5-4-10(27)23-20(25)34/h2-7,11-16,18,26,28-30H,21H2,1H3,(H,24,31)(H,32,33)(H,23,27,34)/t7-,11-,12-,13-,14-,15+,16+,18+/m0/s1

>  <Activity>  (13) 
No data

$$$$
P23316_13
     RDKit          3D

 26 28  0  0  1  0  0  0  0  0999 V2000
    6.9055    2.0830   -1.2210 C   0  0  0  0  0  0  0  0  0  0  0  0
    6.8558   -0.3808   -1.4399 C   0  0  0  0  0  0  0  0  0  0  0  0
    6.6802    1.0622   -3.4657 C   0  0  0  0  0  0  0  0  0  0  0  0
   -1.9535    2.1163    0.9144 C   0  0  0  0  0  0  0  0  0  0  0  0
   -5.3676   -1.0981    0.2739 C   0  0  0  0  0  0  0  0  0  0  0  0
   -4.8968   -1.9587    1.2423 C   0  0  0  0  0  0  0  0  0  0  0  0
   -4.5208   -0.0884   -0.1278 C   0  0  0  0  0  0  0  0  0  0  0  0
    1.4352    1.0756   -2.9301 C   0  0  0  0  0  0  0  0  0  0  0  0
    1.5805    1.0639   -0.5437 C   0  0  0  0  0  0  0  0  0  0  0  0
    0.0507    1.1328   -2.8332 C   0  0  0  0  0  0  0  0  0  0  0  0
    0.2007    1.1210   -0.4869 C   0  0  0  0  0  0  0  0  0  0  0  0
   -1.4833   -0.6012    1.8986 C   0  0  0  0  0  0  0  0  0  0  0  0
   -1.0266   -1.5498    2.9289 C   0  0  0  0  0  0  0  0  0  0  0  0
    3.6506    0.9819   -1.8536 C   0  0  0  0  0  0  0  0  0  0  0  0
    4.8625    0.9521   -1.9090 C   0  0  0  0  0  0  0  0  0  0  0  0
   -2.0536    1.2194   -1.4590 C   0  0  0  0  0  0  0  0  0  0  0  0
    2.2062    1.0409   -1.7953 C   0  0  0  0  0  0  0  0  0  0  0  0
   -0.5854    1.1563   -1.6141 C   0  0  0  0  0  0  0  0  0  0  0  0
   -2.8392   -0.8099    1.3594 C   0  0  0  0  0  0  0  0  0  0  0  0
   -3.6365   -1.8374    1.8020 C   0  0  0  0  0  0  0  0  0  0  0  0
   -3.2540    0.1012    0.3781 C   0  0  0  0  0  0  0  0  0  0  0  0
   -1.9852   -2.6084    3.3131 C   0  0  0  0  0  0  0  0  0  0  0  0
    6.3208    0.9189   -1.9948 C   0  0  0  0  0  0  0  0  0  0  0  0
   -3.1636   -2.7337    2.8005 N   0  0  0  0  0  0  0  0  0  0  0  0
   -2.4098    1.1549   -0.0630 N   0  0  0  0  0  0  0  0  0  0  0  0
   -1.5730   -3.5143    4.2879 O   0  0  0  0  0  0  0  0  0  0  0  0
  1 23  1  0
  2 23  1  0
  3 23  1  0
  4 25  1  0
  5  6  2  0
  5  7  1  0
  6 20  1  0
  7 21  2  0
  8 10  2  0
  8 17  1  0
  9 11  1  0
  9 17  2  0
 10 18  1  0
 11 18  2  0
 12 13  1  0
 12 19  1  0
 13 22  1  0
 14 15  3  0
 14 17  1  0
 15 23  1  0
 16 18  1  0
 16 25  1  0
 19 20  2  0
 19 21  1  0
 20 24  1  0
 21 25  1  0
 22 24  2  0
 22 26  1  0
M  END
>  <InChI>  (14) 
InChI=1S/C23H26N2O/c1-23(2,3)15-14-17-8-10-18(11-9-17)16-25(4)21-7-5-6-20-19(21)12-13-22(26)24-20/h5-11H,12-13,16H2,1-4H3,(H,24,26)

>  <Activity>  (14) 
No data

$$$$
P23316_14
     RDKit          3D

 24 26  0  0  1  0  0  0  0  0999 V2000
   -0.3533    2.7660   -1.5414 C   0  0  0  0  0  0  0  0  0  0  0  0
    6.4367   -2.6555    3.9535 C   0  0  0  0  0  0  0  0  0  0  0  0
    2.0796   -0.3038   -0.6768 C   0  0  0  0  0  0  0  0  0  0  0  0
    6.7463   -1.5859    3.2111 C   0  0  0  0  0  0  0  0  0  0  0  0
    5.1826   -3.3060    3.7901 C   0  0  0  0  0  0  0  0  0  0  0  0
    2.9724   -0.7724    0.2842 C   0  0  0  0  0  0  0  0  0  0  0  0
    1.2521    0.1148   -1.5368 C   0  0  0  0  0  0  0  0  0  0  0  0
   -3.8266    0.3170   -3.7267 C   0  0  0  0  0  0  0  0  0  0  0  0
    5.8909   -1.0296    2.2401 C   0  0  0  0  0  0  0  0  0  0  0  0
    4.3950   -2.7230    2.8367 C   0  0  0  0  0  0  0  0  0  0  0  0
    3.7132   -1.1586    1.0675 C   0  0  0  0  0  0  0  0  0  0  0  0
   -4.7177    0.3803   -2.6852 C   0  0  0  0  0  0  0  0  0  0  0  0
   -2.5280    0.6562   -3.4834 C   0  0  0  0  0  0  0  0  0  0  0  0
   -2.5512    1.5690    0.1498 C   0  0  0  0  0  0  0  0  0  0  0  0
   -3.5704    1.6098    1.2132 C   0  0  0  0  0  0  0  0  0  0  0  0
    0.3364    0.5621   -2.4795 C   0  0  0  0  0  0  0  0  0  0  0  0
    4.6703   -1.6682    2.0863 C   0  0  0  0  0  0  0  0  0  0  0  0
   -2.9731    1.1307   -1.1803 C   0  0  0  0  0  0  0  0  0  0  0  0
   -4.2800    0.7876   -1.4236 C   0  0  0  0  0  0  0  0  0  0  0  0
   -2.0677    1.0696   -2.2201 C   0  0  0  0  0  0  0  0  0  0  0  0
   -4.9317    1.2184    0.8166 C   0  0  0  0  0  0  0  0  0  0  0  0
   -5.2148    0.8512   -0.3803 N   0  0  0  0  0  0  0  0  0  0  0  0
   -0.7112    1.4273   -2.0705 N   0  0  0  0  0  0  0  0  0  0  0  0
   -5.9497    1.2397    1.7555 O   0  0  0  0  0  0  0  0  0  0  0  0
  1 23  1  0
  2  4  2  0
  2  5  1  0
  3  6  1  0
  3  7  3  0
  4  9  1  0
  5 10  2  0
  6 11  3  0
  7 16  1  0
  8 12  2  0
  8 13  1  0
  9 17  2  0
 10 17  1  0
 11 17  1  0
 12 19  1  0
 13 20  2  0
 14 15  1  0
 14 18  1  0
 15 21  1  0
 16 23  1  0
 18 19  2  0
 18 20  1  0
 19 22  1  0
 20 23  1  0
 21 22  2  0
 21 24  1  0
M  END
>  <InChI>  (15) 
InChI=1S/C21H18N2O/c1-23(16-7-3-6-11-17-9-4-2-5-10-17)20-13-8-12-19-18(20)14-15-21(24)22-19/h2,4-5,8-10,12-13H,14-16H2,1H3,(H,22,24)

>  <Activity>  (15) 
No data

$$$$
P23316_15
     RDKit          3D

 22 23  0  0  1  0  0  0  0  0999 V2000
    4.3428   -3.3024   -0.8528 C   0  0  0  0  0  0  0  0  0  0  0  0
    5.0701   -0.9371   -0.6282 C   0  0  0  0  0  0  0  0  0  0  0  0
    5.2204   -2.1098   -2.8233 C   0  0  0  0  0  0  0  0  0  0  0  0
   -1.1693    1.4414   -2.1939 C   0  0  0  0  0  0  0  0  0  0  0  0
    0.5479   -0.7503   -2.6460 C   0  0  0  0  0  0  0  0  0  0  0  0
    1.8876   -1.1494   -2.2545 C   0  0  0  0  0  0  0  0  0  0  0  0
   -0.4561   -1.5528   -1.8312 C   0  0  0  0  0  0  0  0  0  0  0  0
   -4.5089    0.6079    1.0913 C   0  0  0  0  0  0  0  0  0  0  0  0
   -3.6242    0.8545    2.1321 C   0  0  0  0  0  0  0  0  0  0  0  0
   -3.7702    0.4884   -0.1410 C   0  0  0  0  0  0  0  0  0  0  0  0
   -0.2253    0.9765    0.8077 C   0  0  0  0  0  0  0  0  0  0  0  0
    0.5109    1.6777    1.8585 C   0  0  0  0  0  0  0  0  0  0  0  0
    3.0890   -1.5102   -1.9139 C   0  0  0  0  0  0  0  0  0  0  0  0
   -1.8382   -1.0033   -2.0479 C   0  0  0  0  0  0  0  0  0  0  0  0
   -1.6457    0.8679    0.8546 C   0  0  0  0  0  0  0  0  0  0  0  0
   -2.2913    0.9972    2.1434 C   0  0  0  0  0  0  0  0  0  0  0  0
   -2.4401    0.6120   -0.2314 C   0  0  0  0  0  0  0  0  0  0  0  0
   -0.2727    1.7382    3.1352 C   0  0  0  0  0  0  0  0  0  0  0  0
    4.4040   -1.9196   -1.5282 C   0  0  0  0  0  0  0  0  0  0  0  0
   -1.4830    1.4309    3.1813 N   0  0  0  0  0  0  0  0  0  0  0  0
   -1.8342    0.3780   -1.5243 N   0  0  0  0  0  0  0  0  0  0  0  0
    0.4864    2.1641    4.2472 O   0  0  0  0  0  0  0  0  0  0  0  0
  1 19  1  0
  2 19  1  0
  3 19  1  0
  4 21  1  0
  5  6  1  0
  5  7  1  0
  6 13  3  0
  7 14  1  0
  8  9  2  0
  8 10  1  0
  9 16  1  0
 10 17  2  0
 11 12  1  0
 11 15  1  0
 12 18  1  0
 13 19  1  0
 14 21  1  0
 15 16  2  0
 15 17  1  0
 16 20  1  0
 17 21  1  0
 18 20  2  0
 18 22  1  0
M  END
>  <InChI>  (16) 
InChI=1S/C19H26N2O/c1-19(2,3)13-6-5-7-14-21(4)17-10-8-9-16-15(17)11-12-18(22)20-16/h8-10H,5,7,11-12,14H2,1-4H3,(H,20,22)

>  <Activity>  (16) 
No data

$$$$
P23316_16
     RDKit          3D

 20 20  0  0  1  0  0  0  0  0999 V2000
   -4.5549   -2.8542   -3.4700 C   0  0  0  0  0  0  0  0  0  0  0  0
    4.8038    4.9875    1.1342 C   0  0  0  0  0  0  0  0  0  0  0  0
    6.1490    2.8814    1.0365 C   0  0  0  0  0  0  0  0  0  0  0  0
    5.7719    4.2519   -0.9694 C   0  0  0  0  0  0  0  0  0  0  0  0
    1.6168    1.7003   -0.3803 C   0  0  0  0  0  0  0  0  0  0  0  0
    2.8190    2.3936   -0.1509 C   0  0  0  0  0  0  0  0  0  0  0  0
    1.4431    0.4480    0.0449 C   0  0  0  0  0  0  0  0  0  0  0  0
   -3.1868   -2.5775    2.4340 C   0  0  0  0  0  0  0  0  0  0  0  0
   -2.0235   -1.8404    2.3926 C   0  0  0  0  0  0  0  0  0  0  0  0
   -3.8593   -2.9349    1.2957 C   0  0  0  0  0  0  0  0  0  0  0  0
    3.9070    3.0448    0.0675 C   0  0  0  0  0  0  0  0  0  0  0  0
    0.1996   -0.3297   -0.1696 C   0  0  0  0  0  0  0  0  0  0  0  0
   -2.2296   -1.8290   -0.0038 C   0  0  0  0  0  0  0  0  0  0  0  0
   -3.7799   -2.4247   -2.2559 C   0  0  0  0  0  0  0  0  0  0  0  0
   -1.5657   -1.4777    1.1407 C   0  0  0  0  0  0  0  0  0  0  0  0
   -3.4002   -2.5707    0.0398 C   0  0  0  0  0  0  0  0  0  0  0  0
    5.1054    3.7381    0.3195 C   0  0  0  0  0  0  0  0  0  0  0  0
   -0.3493   -0.7164    1.1178 N   0  0  0  0  0  0  0  0  0  0  0  0
   -4.0900   -2.9328   -1.1379 N   0  0  0  0  0  0  0  0  0  0  0  0
   -2.7764   -1.4906   -2.4854 O   0  0  0  0  0  0  0  0  0  0  0  0
  1 14  1  0
  2 17  1  0
  3 17  1  0
  4 17  1  0
  5  6  1  0
  5  7  2  0
  6 11  3  0
  7 12  1  0
  8  9  2  0
  8 10  1  0
  9 15  1  0
 10 16  2  0
 11 17  1  0
 12 18  1  0
 13 15  2  0
 13 16  1  0
 14 19  2  3
 14 20  1  0
 15 18  1  0
 16 19  1  0
M  END
>  <InChI>  (17) 
InChI=1S/C17H22N2O/c1-14(20)19-16-10-8-9-15(13-16)18-12-7-5-6-11-17(2,3)4/h5,7-10,13,18H,12H2,1-4H3,(H,19,20)/b7-5+

>  <Activity>  (17) 
No data

$$$$
P23316_17
     RDKit          3D

 36 37  0  0  1  0  0  0  0  0999 V2000
    5.2211    0.0336    0.2145 C   0  0  0  0  0  0  0  0  0  0  0  0
   -7.1244   -0.7564   -0.3638 C   0  0  0  0  0  0  0  0  0  0  0  0
    6.3107    0.6792    0.8133 C   0  0  0  0  0  0  0  0  0  0  0  0
   -5.6711   -0.7667    0.0136 C   0  0  0  0  0  0  0  0  0  0  0  0
   -3.5030   -1.6331   -0.9191 C   0  0  0  0  0  0  0  0  0  0  0  0
   -0.3753    0.1366   -0.0592 C   0  0  0  0  0  0  0  0  0  0  0  0
   -4.7455   -0.8571   -1.1314 C   0  0  0  0  0  0  0  0  0  0  0  0
    1.3543   -1.5908    0.1520 C   0  0  1  0  0  0  0  0  0  0  0  0
    3.0225   -1.3187    0.2687 C   0  0  2  0  0  0  0  0  0  0  0  0
    1.0613   -0.1865   -0.8152 C   0  0  2  0  0  0  0  0  0  0  0  0
    6.2197    2.0244    0.9733 C   0  0  0  0  0  0  0  0  0  0  0  0
   -2.4680   -0.8470   -0.2170 C   0  0  0  0  0  0  0  0  0  0  0  0
    2.9876    0.0086   -0.8416 C   0  0  2  0  0  0  0  0  0  0  0  0
    7.4642   -0.1251    1.2236 C   0  0  0  0  0  0  0  0  0  0  0  0
   -0.6277    1.5353   -0.0291 C   0  0  0  0  0  0  0  0  0  0  0  0
   -9.3010   -1.0076    0.6838 C   0  0  0  0  0  0  0  0  0  0  0  0
    4.0868    2.0673   -0.0029 C   0  0  0  0  0  0  0  0  0  0  0  0
   -2.9863   -2.0820   -2.1763 N   0  0  0  0  0  0  0  0  0  0  0  0
   -9.7946   -1.4944   -0.3789 N   0  0  0  0  0  0  0  0  0  0  0  0
   -1.3467   -0.6429   -0.8048 N   0  0  0  0  0  0  0  0  0  0  0  0
    5.1324    2.7263    0.5778 N   0  0  0  0  0  0  0  0  0  0  0  0
    4.1915    0.7624   -0.1506 N   0  0  0  0  0  0  0  0  0  0  0  0
   -5.3529    0.2194    0.9419 O   0  0  0  0  0  0  0  0  0  0  0  0
   -4.6285    0.2632   -1.9074 O   0  0  0  0  0  0  0  0  0  0  0  0
    1.2894   -2.4779   -1.0509 O   0  0  0  0  0  0  0  0  0  0  0  0
    3.5573   -2.2871   -0.7292 O   0  0  0  0  0  0  0  0  0  0  0  0
    7.2857    2.7058    1.5665 O   0  0  0  0  0  0  0  0  0  0  0  0
   -2.7872   -0.3754    1.0531 O   0  0  0  0  0  0  0  0  0  0  0  0
    8.4548    0.4351    1.7637 O   0  0  0  0  0  0  0  0  0  0  0  0
    7.4774   -1.4716    1.0276 O   0  0  0  0  0  0  0  0  0  0  0  0
   -1.6042    2.0348   -0.6346 O   0  0  0  0  0  0  0  0  0  0  0  0
    0.1927    2.3970    0.6688 O   0  0  0  0  0  0  0  0  0  0  0  0
  -10.0851   -0.4962    1.7370 O   0  0  0  0  0  0  0  0  0  0  0  0
    3.0810    2.6761   -0.3752 O   0  0  0  0  0  0  0  0  0  0  0  0
   -7.9160   -0.9791    0.8113 O   0  0  0  0  0  0  0  0  0  0  0  0
    1.9267    0.6903    0.0792 O   0  0  0  0  0  0  0  0  0  0  0  0
  1  3  2  0
  1 22  1  0
  2  4  1  0
  2 35  1  0
  3 11  1  0
  3 14  1  0
  4  7  1  0
  4 23  1  0
  5  7  1  0
  5 12  1  0
  5 18  1  0
 10  6  1  1
  6 15  1  0
  6 20  1  0
  7 24  1  0
  8  9  1  0
  8 10  1  0
  8 25  1  6
  9 13  1  0
  9 26  1  6
 10 36  1  0
 11 21  2  0
 11 27  1  0
 12 20  2  3
 12 28  1  0
 13 22  1  1
 13 36  1  0
 14 29  2  0
 14 30  1  0
 15 31  2  0
 15 32  1  0
 16 19  2  0
 16 33  1  0
 16 35  1  0
 17 21  1  0
 17 22  1  0
 17 34  2  0
M  END
>  <InChI>  (18) 
InChI=1S/C17H23N5O14/c18-5(7(24)4(23)2-35-16(19)33)12(28)20-6(15(31)32)10-8(25)9(26)13(36-10)22-1-3(14(29)30)11(27)21-17(22)34/h1,4-10,13,23-26H,2,18H2,(H2,19,33)(H,20,28)(H,29,30)(H,31,32)(H,21,27,34)/t4?,5?,6?,7?,8-,9+,10+,13+/m0/s1

>  <Activity>  (18) 
Inactive

$$$$
P23316_18
     RDKit          3D

 39 42  0  0  1  0  0  0  0  0999 V2000
    2.4941    0.6004   -1.3907 C   0  0  0  0  0  0  0  0  0  0  0  0
    2.4190    1.5982    0.7778 C   0  0  0  0  0  0  0  0  0  0  0  0
    8.4995   -1.3793    1.0952 C   0  0  0  0  0  0  0  0  0  0  0  0
    7.8241    0.7075    0.1114 C   0  0  0  0  0  0  0  0  0  0  0  0
    3.4318   -0.3015   -0.9011 C   0  0  0  0  0  0  0  0  0  0  0  0
    3.3633    0.6696    1.2222 C   0  0  0  0  0  0  0  0  0  0  0  0
    7.1790   -1.7690    1.2152 C   0  0  0  0  0  0  0  0  0  0  0  0
    6.5545    0.2591    0.2606 C   0  0  0  0  0  0  0  0  0  0  0  0
   -5.2582    2.3179    1.5709 C   0  0  0  0  0  0  0  0  0  0  0  0
   -4.5282    1.2895    1.0258 C   0  0  0  0  0  0  0  0  0  0  0  0
    0.9923    2.5542   -0.9923 C   0  0  0  0  0  0  0  0  0  0  0  0
    1.9845    1.5599   -0.5376 C   0  0  0  0  0  0  0  0  0  0  0  0
    8.8222   -0.1385    0.5422 C   0  0  0  0  0  0  0  0  0  0  0  0
    3.8884   -0.2971    0.3948 C   0  0  0  0  0  0  0  0  0  0  0  0
    6.1930   -0.9654    0.8046 C   0  0  0  0  0  0  0  0  0  0  0  0
   -0.3372    1.9249   -0.7405 C   0  0  0  0  0  0  0  0  0  0  0  0
   -6.6243    2.1839    1.6193 C   0  0  0  0  0  0  0  0  0  0  0  0
   -0.9636   -1.4103   -0.3050 C   0  0  0  0  0  0  0  0  0  0  0  0
   -2.8823   -1.4164   -1.8525 C   0  0  1  0  0  0  0  0  0  0  0  0
   -3.8781   -0.1290   -1.4400 C   0  0  2  0  0  0  0  0  0  0  0  0
   -2.5146   -1.8777   -0.2576 C   0  0  2  0  0  0  0  0  0  0  0  0
   -0.4673    0.6584   -1.5006 C   0  0  0  0  0  0  0  0  0  0  0  0
   -4.3840   -0.9842   -0.0613 C   0  0  2  0  0  0  0  0  0  0  0  0
   -0.2464   -2.0319    0.7822 C   0  0  0  0  0  0  0  0  0  0  0  0
   -6.4409    0.1033    0.6225 C   0  0  0  0  0  0  0  0  0  0  0  0
   -0.4191    1.6149    0.6699 N   0  0  0  0  0  0  0  0  0  0  0  0
   -7.2132    1.0772    1.1455 N   0  0  0  0  0  0  0  0  0  0  0  0
   -0.7042   -0.3291   -0.9303 N   0  0  0  0  0  0  0  0  0  0  0  0
   -5.1000    0.2302    0.5727 N   0  0  0  0  0  0  0  0  0  0  0  0
   10.1220    0.3037    0.3974 O   0  0  0  0  0  0  0  0  0  0  0  0
   -7.4247    3.2164    2.1721 O   0  0  0  0  0  0  0  0  0  0  0  0
   -3.9072   -2.4939   -1.9300 O   0  0  0  0  0  0  0  0  0  0  0  0
   -5.0676   -0.4432   -2.2667 O   0  0  0  0  0  0  0  0  0  0  0  0
   -0.3087    0.6348   -2.9094 O   0  0  0  0  0  0  0  0  0  0  0  0
    0.8157   -1.5273    1.2651 O   0  0  0  0  0  0  0  0  0  0  0  0
   -0.7281   -3.2204    1.3219 O   0  0  0  0  0  0  0  0  0  0  0  0
   -7.0140   -0.9302    0.1817 O   0  0  0  0  0  0  0  0  0  0  0  0
    4.8259   -1.2093    0.8560 O   0  0  0  0  0  0  0  0  0  0  0  0
   -2.9973   -0.6501    0.4286 O   0  0  0  0  0  0  0  0  0  0  0  0
  1  5  2  0
  1 12  1  0
  2  6  1  0
  2 12  2  0
  3  7  2  0
  3 13  1  0
  4  8  1  0
  4 13  2  0
  5 14  1  0
  6 14  2  0
  7 15  1  0
  8 15  2  0
  9 10  2  0
  9 17  1  0
 10 29  1  0
 11 12  1  0
 11 16  1  0
 13 30  1  0
 14 38  1  0
 15 38  1  0
 16 22  1  0
 16 26  1  0
 17 27  2  0
 17 31  1  0
 21 18  1  6
 18 24  1  0
 18 28  1  0
 19 20  1  0
 19 21  1  0
 19 32  1  1
 20 23  1  0
 20 33  1  6
 21 39  1  0
 22 28  2  3
 22 34  1  0
 23 29  1  1
 23 39  1  0
 24 35  2  0
 24 36  1  0
 25 27  1  0
 25 29  1  0
 25 37  2  0
M  END
>  <InChI>  (19) 
InChI=1S/C25H26N4O10/c26-16(11-12-1-5-14(6-2-12)38-15-7-3-13(30)4-8-15)22(34)28-18(24(35)36)21-19(32)20(33)23(39-21)29-10-9-17(31)27-25(29)37/h1-10,16,18-21,23,30,32-33H,11,26H2,(H,28,34)(H,35,36)(H,27,31,37)/t16?,18?,19-,20+,21+,23+/m0/s1

>  <Activity>  (19) 
No data

$$$$
P23316_19
     RDKit          3D

 43 45  0  0  1  0  0  0  0  0999 V2000
   -6.0451    1.9342    3.9202 C   0  0  0  0  0  0  0  0  0  0  0  0
   -5.1938    3.8755    2.6331 C   0  0  0  0  0  0  0  0  0  0  0  0
   -4.1460   -1.5815   -2.4755 C   0  0  0  0  0  0  0  0  0  0  0  0
   -0.1120   -3.7338   -0.8387 C   0  0  0  0  0  0  0  0  0  0  0  0
   -0.3277   -2.8185   -1.8414 C   0  0  0  0  0  0  0  0  0  0  0  0
    5.4395    3.4944    0.6162 C   0  0  0  0  0  0  0  0  0  0  0  0
    4.4267    2.5503    0.7434 C   0  0  0  0  0  0  0  0  0  0  0  0
   -3.9305    1.7164    2.5943 C   0  0  0  0  0  0  0  0  0  0  0  0
   -2.4676   -3.9399   -0.5924 C   0  0  0  0  0  0  0  0  0  0  0  0
   -4.8029    2.6435    3.3849 C   0  0  0  0  0  0  0  0  0  0  0  0
   -3.0225   -0.4917   -2.6645 C   0  0  1  0  0  0  0  0  0  0  0  0
   -1.1979   -4.3108   -0.1963 C   0  0  0  0  0  0  0  0  0  0  0  0
   -4.9015    1.1934    1.3431 C   0  0  1  0  0  0  0  0  0  0  0  0
   -1.6366   -2.5244   -2.1529 C   0  0  0  0  0  0  0  0  0  0  0  0
    6.5382    3.2237   -0.1524 C   0  0  0  0  0  0  0  0  0  0  0  0
   -2.3866   -0.4019   -1.1033 C   0  0  1  0  0  0  0  0  0  0  0  0
    0.0114   -0.3184    0.2937 C   0  0  1  0  0  0  0  0  0  0  0  0
   -1.7831   -1.4337   -3.3502 C   0  0  1  0  0  0  0  0  0  0  0  0
    2.1116   -1.1962    1.3816 C   0  0  1  0  0  0  0  0  0  0  0  0
    2.9853    0.2464    1.7528 C   0  0  2  0  0  0  0  0  0  0  0  0
    1.6538   -0.6236   -0.1714 C   0  0  2  0  0  0  0  0  0  0  0  0
   -3.7561    0.2517    0.6829 C   0  0  0  0  0  0  0  0  0  0  0  0
   -1.3109    0.7424   -1.4665 C   0  0  0  0  0  0  0  0  0  0  0  0
    3.5212    0.3324    0.1905 C   0  0  0  0  0  0  0  0  0  0  0  0
    0.2615    0.6301    1.5024 C   0  0  0  0  0  0  0  0  0  0  0  0
    5.5926    1.1318   -0.6229 C   0  0  0  0  0  0  0  0  0  0  0  0
   -5.5608    0.0342    2.2169 N   0  0  0  0  0  0  0  0  0  0  0  0
   -2.6441   -3.0424   -1.5758 N   0  0  0  0  0  0  0  0  0  0  0  0
    6.5701    2.0160   -0.7588 N   0  0  0  0  0  0  0  0  0  0  0  0
   -3.5077    0.5624   -0.5467 N   0  0  0  0  0  0  0  0  0  0  0  0
   -0.2251    0.7564   -0.8151 N   0  0  0  0  0  0  0  0  0  0  0  0
    4.4744    1.3535    0.1331 N   0  0  0  0  0  0  0  0  0  0  0  0
   -0.9452   -5.2267    0.8068 O   0  0  0  0  0  0  0  0  0  0  0  0
    7.6005    4.0730   -0.3543 O   0  0  0  0  0  0  0  0  0  0  0  0
   -2.7050   -2.2846   -4.2440 O   0  0  0  0  0  0  0  0  0  0  0  0
    3.2600   -1.9590    0.7784 O   0  0  0  0  0  0  0  0  0  0  0  0
    4.2347   -0.4308    2.2906 O   0  0  0  0  0  0  0  0  0  0  0  0
   -3.1908   -0.7187    1.4236 O   0  0  0  0  0  0  0  0  0  0  0  0
   -1.5253    1.6624   -2.4095 O   0  0  0  0  0  0  0  0  0  0  0  0
    0.3124    1.8338    1.4491 O   0  0  0  0  0  0  0  0  0  0  0  0
    0.4273   -0.0075    2.6848 O   0  0  0  0  0  0  0  0  0  0  0  0
    5.7235    0.0278   -1.2363 O   0  0  0  0  0  0  0  0  0  0  0  0
    2.1802    0.7583    0.0173 O   0  0  0  0  0  0  0  0  0  0  0  0
  1 10  1  0
  2 10  1  0
 11  3  1  1
  4  5  2  0
  4 12  1  0
  5 14  1  0
  6  7  2  0
  6 15  1  0
  7 32  1  0
  8 10  1  0
  8 13  1  0
  9 12  2  0
  9 28  1  0
 11 16  1  0
 11 18  1  0
 12 33  1  0
 13 22  1  0
 13 27  1  1
 14 18  1  0
 14 28  2  0
 15 29  2  0
 15 34  1  0
 16 23  1  0
 16 30  1  1
 17 21  1  0
 17 25  1  0
 17 31  1  6
 18 35  1  6
 19 20  1  0
 19 21  1  0
 19 36  1  6
 20 24  1  0
 20 37  1  1
 21 43  1  1
 22 30  2  3
 22 38  1  0
 23 31  2  3
 23 39  1  0
 24 32  1  0
 24 43  1  0
 25 40  2  0
 25 41  1  0
 26 29  1  0
 26 32  1  0
 26 42  2  0
M  END
>  <InChI>  (20) 
InChI=1S/C26H36N6O11/c1-10(2)8-13(27)22(38)30-16(11(3)18(35)14-5-4-12(33)9-28-14)23(39)31-17(25(40)41)21-19(36)20(37)24(43-21)32-7-6-15(34)29-26(32)42/h4-7,9-11,13,16-21,24,33,35-37H,8,27H2,1-3H3,(H,30,38)(H,31,39)(H,40,41)(H,29,34,42)/t11-,13-,16-,17-,18-,19-,20+,21+,24?/m0/s1

>  <Activity>  (20) 
No data

$$$$
P23316_20
     RDKit          3D

 23 24  0  0  1  0  0  0  0  0999 V2000
    6.2550   -3.0925    2.4411 C   0  0  0  0  0  0  0  0  0  0  0  0
    4.5349   -4.7782    1.7171 C   0  0  0  0  0  0  0  0  0  0  0  0
    6.3623   -3.9080    0.1347 C   0  0  0  0  0  0  0  0  0  0  0  0
    0.2516    1.0483    1.6054 C   0  0  0  0  0  0  0  0  0  0  0  0
    2.9945   -0.1876    0.1558 C   0  0  0  0  0  0  0  0  0  0  0  0
    3.7529   -1.3301    0.5379 C   0  0  0  0  0  0  0  0  0  0  0  0
    2.3287    0.8207   -0.1583 C   0  0  0  0  0  0  0  0  0  0  0  0
   -1.6821    0.5023   -2.3331 C   0  0  0  0  0  0  0  0  0  0  0  0
   -2.8384    0.3859   -2.6997 C   0  0  0  0  0  0  0  0  0  0  0  0
   -0.4400    0.5925   -2.0669 C   0  0  0  0  0  0  0  0  0  0  0  0
    4.5583   -2.5541    0.9356 C   0  0  0  0  0  0  0  0  0  0  0  0
    1.6495    1.8109   -0.4724 C   0  0  0  0  0  0  0  0  0  0  0  0
   -2.6329    1.2147    1.1474 C   0  0  0  0  0  0  0  0  0  0  0  0
   -2.1947    1.0183   -0.4179 C   0  0  0  0  0  0  0  0  0  0  0  0
   -3.9593    1.8544    1.0993 C   0  0  0  0  0  0  0  0  0  0  0  0
   -3.3279    0.8194   -1.1132 C   0  0  0  0  0  0  0  0  0  0  0  0
   -0.8539    1.0355   -0.5022 C   0  0  0  0  0  0  0  0  0  0  0  0
   -5.0306    1.5361    0.3240 C   0  0  0  0  0  0  0  0  0  0  0  0
    5.1965   -3.5275    1.2737 C   0  0  0  0  0  0  0  0  0  0  0  0
   -4.1349    2.8806    2.1083 N   0  0  0  0  0  0  0  0  0  0  0  0
   -4.6101    0.9625   -0.9872 N   0  0  0  0  0  0  0  0  0  0  0  0
    0.2022    1.2987    0.2234 N   0  0  0  0  0  0  0  0  0  0  0  0
   -6.3816    1.5970    0.4366 O   0  0  0  0  0  0  0  0  0  0  0  0
  1 19  1  0
  2 19  1  0
  3 19  1  0
  4 22  1  0
  5  6  1  0
  5  7  3  0
  6 11  3  0
  7 12  1  0
  8  9  2  0
  8 10  1  0
  9 16  1  0
 10 17  2  0
 11 19  1  0
 12 22  1  0
 13 14  1  0
 13 15  1  0
 14 16  2  0
 14 17  1  0
 15 18  1  0
 15 20  1  0
 16 21  1  0
 17 22  1  0
 18 21  2  0
 18 23  1  0
M  END
>  <InChI>  (21) 
InChI=1S/C19H23N3O/c1-19(2,3)11-6-5-7-12-22(4)17-10-8-9-16-14(17)13-15(20)18(23)21-16/h8-10,15H,12-13,20H2,1-4H3,(H,21,23)

>  <Activity>  (21) 
No data

$$$$
P23316_21
     RDKit          2D

 20 21  0  0  1  0  0  0  0  0999 V2000
    1.5000    0.0000    0.0000 C   0  0  0  0  0  0  0  0  0  0  0  0
    0.7500   -1.2990    0.0000 C   0  0  0  0  0  0  0  0  0  0  0  0
    0.7500    1.2990    0.0000 C   0  0  0  0  0  0  0  0  0  0  0  0
   -4.6740   -4.8322    0.0000 C   0  0  0  0  0  0  0  0  0  0  0  0
   -2.0046   -4.9721    0.0000 C   0  0  0  0  0  0  0  0  0  0  0  0
   -0.8899   -3.9684    0.0000 C   0  0  0  0  0  0  0  0  0  0  0  0
   -3.3037   -4.2221    0.0000 C   0  0  0  0  0  0  0  0  0  0  0  0
   -1.5000   -2.5981    0.0000 C   0  0  0  0  0  0  0  0  0  0  0  0
   -5.8875   -3.9505    0.0000 C   0  0  0  0  0  0  0  0  0  0  0  0
   -1.5000    0.0000    0.0000 C   0  0  0  0  0  0  0  0  0  0  0  0
   -4.8308   -6.3240    0.0000 N   0  0  0  0  0  0  0  0  0  0  0  0
   -0.7500    1.2990    0.0000 N   0  0  0  0  0  0  0  0  0  0  0  0
   -0.7500   -1.2990    0.0000 N   0  0  0  0  0  0  0  0  0  0  0  0
    1.5000    2.5981    0.0000 O   0  0  0  0  0  0  0  0  0  0  0  0
   -1.8478   -6.4639    0.0000 O   0  0  0  0  0  0  0  0  0  0  0  0
    0.5773   -4.2803    0.0000 O   0  0  0  0  0  0  0  0  0  0  0  0
   -5.7307   -2.4587    0.0000 O   0  0  0  0  0  0  0  0  0  0  0  0
   -7.2578   -4.5606    0.0000 O   0  0  0  0  0  0  0  0  0  0  0  0
   -3.0000    0.0000    0.0000 O   0  0  0  0  0  0  0  0  0  0  0  0
   -2.9918   -2.7549    0.0000 O   0  0  0  0  0  0  0  0  0  0  0  0
  1  2  2  0
  1  3  1  0
  2 13  1  0
  3 12  2  0
  3 14  1  0
  7  4  1  1
  4  9  1  0
  4 11  1  0
  5  6  1  0
  5  7  1  0
  5 15  1  6
  6  8  1  0
  6 16  1  6
  7 20  1  0
  8 13  1  1
  8 20  1  0
  9 17  2  0
  9 18  1  0
 10 12  1  0
 10 13  1  0
 10 19  2  0
M  END
>  <InChI>  (22) 
InChI=1S/C10H13N3O7/c11-4(9(17)18)7-5(15)6(16)8(20-7)13-2-1-3(14)12-10(13)19/h1-2,4-8,15-16H,11H2,(H,17,18)(H,12,14,19)/t4?,5-,6+,7+,8+/m0/s1

>  <Activity>  (22) 
No data

$$$$
P23316_22
     RDKit          3D

 42 45  0  0  1  0  0  0  0  0999 V2000
   -8.5194    3.8812    1.5961 C   0  0  0  0  0  0  0  0  0  0  0  0
    0.2107   -5.8784   -0.6232 C   0  0  0  0  0  0  0  0  0  0  0  0
   -7.2603    4.4075    1.7082 C   0  0  0  0  0  0  0  0  0  0  0  0
   -8.7564    2.5267    1.4842 C   0  0  0  0  0  0  0  0  0  0  0  0
   -0.7767   -5.9417    0.3214 C   0  0  0  0  0  0  0  0  0  0  0  0
    0.3629   -4.6620   -1.2715 C   0  0  0  0  0  0  0  0  0  0  0  0
   -6.1862    3.5052    1.7062 C   0  0  0  0  0  0  0  0  0  0  0  0
   -7.6514    1.6682    1.4872 C   0  0  0  0  0  0  0  0  0  0  0  0
   -1.5674   -4.8655    0.6079 C   0  0  0  0  0  0  0  0  0  0  0  0
   -0.4186   -3.5860   -0.9933 C   0  0  0  0  0  0  0  0  0  0  0  0
    6.6130    2.7508   -1.8898 C   0  0  0  0  0  0  0  0  0  0  0  0
    5.2842    2.5089   -1.6183 C   0  0  0  0  0  0  0  0  0  0  0  0
   -5.2492    1.2123    1.5894 C   0  0  0  0  0  0  0  0  0  0  0  0
   -2.3281   -2.6189    0.3036 C   0  0  0  0  0  0  0  0  0  0  0  0
   -6.3749    2.1598    1.5980 C   0  0  0  0  0  0  0  0  0  0  0  0
   -1.4032   -3.6416   -0.0547 C   0  0  0  0  0  0  0  0  0  0  0  0
   -4.8257    1.0422    0.1684 C   0  0  0  0  0  0  0  0  0  0  0  0
   -2.0114   -1.4156    0.6243 C   0  0  0  0  0  0  0  0  0  0  0  0
    7.5954    2.2223   -1.0869 C   0  0  0  0  0  0  0  0  0  0  0  0
    1.7277   -1.3787    0.3884 C   0  0  0  0  0  0  0  0  0  0  0  0
    1.7572    0.2050   -1.4716 C   0  0  1  0  0  0  0  0  0  0  0  0
    3.3084    0.7402   -1.8893 C   0  0  2  0  0  0  0  0  0  0  0  0
    2.0167    0.2471    0.2374 C   0  0  2  0  0  0  0  0  0  0  0  0
   -3.7052    0.1088   -0.0168 C   0  0  0  0  0  0  0  0  0  0  0  0
   -0.6627   -0.9014    0.6792 C   0  0  0  0  0  0  0  0  0  0  0  0
    3.4485    1.5245   -0.3175 C   0  0  2  0  0  0  0  0  0  0  0  0
    2.3490   -1.7813    1.6624 C   0  0  0  0  0  0  0  0  0  0  0  0
    5.8971    1.2292    0.2319 C   0  0  0  0  0  0  0  0  0  0  0  0
   -5.9509    0.5984   -0.6550 N   0  0  0  0  0  0  0  0  0  0  0  0
   -3.1154   -0.5081    0.9395 N   0  0  0  0  0  0  0  0  0  0  0  0
    7.1892    1.4751   -0.0482 N   0  0  0  0  0  0  0  0  0  0  0  0
    0.3527   -1.5644    0.4277 N   0  0  0  0  0  0  0  0  0  0  0  0
    5.0031    1.7458   -0.5505 N   0  0  0  0  0  0  0  0  0  0  0  0
    8.9637    2.4449   -1.3290 O   0  0  0  0  0  0  0  0  0  0  0  0
    1.0526    1.5365   -1.4145 O   0  0  0  0  0  0  0  0  0  0  0  0
    2.9818    1.9890   -2.6418 O   0  0  0  0  0  0  0  0  0  0  0  0
   -3.2744   -0.1033   -1.3153 O   0  0  0  0  0  0  0  0  0  0  0  0
   -0.4492    0.4440    1.0417 O   0  0  0  0  0  0  0  0  0  0  0  0
    1.6212   -2.1040    2.6236 O   0  0  0  0  0  0  0  0  0  0  0  0
    3.7101   -1.8155    1.8301 O   0  0  0  0  0  0  0  0  0  0  0  0
    5.5297    0.5299    1.2066 O   0  0  0  0  0  0  0  0  0  0  0  0
    3.5121    0.0629    0.1805 O   0  0  0  0  0  0  0  0  0  0  0  0
  1  3  2  0
  1  4  1  0
  2  5  2  0
  2  6  1  0
  3  7  1  0
  4  8  2  0
  5  9  1  0
  6 10  2  0
  7 15  2  0
  8 15  1  0
  9 16  2  0
 10 16  1  0
 11 12  2  0
 11 19  1  0
 12 33  1  0
 13 15  1  0
 13 17  1  0
 14 16  1  0
 14 18  2  0
 17 24  1  0
 17 29  1  0
 18 25  1  0
 18 30  1  0
 19 31  2  0
 19 34  1  0
 23 20  1  1
 20 27  1  0
 20 32  1  0
 21 22  1  0
 21 23  1  0
 21 35  1  1
 22 26  1  0
 22 36  1  6
 23 42  1  0
 24 30  2  0
 24 37  1  0
 25 32  2  0
 25 38  1  0
 26 33  1  6
 26 42  1  0
 27 39  2  0
 27 40  1  0
 28 31  1  0
 28 33  1  0
 28 41  2  0
M  END
>  <InChI>  (23) 
InChI=1S/C28H29N5O9/c29-17(13-15-7-3-1-4-8-15)24(37)30-18(14-16-9-5-2-6-10-16)25(38)32-20(27(39)40)23-21(35)22(36)26(42-23)33-12-11-19(34)31-28(33)41/h1-12,14,17,20-23,26,35-36H,13,29H2,(H,30,37)(H,32,38)(H,39,40)(H,31,34,41)/b18-14+/t17?,20?,21-,22+,23+,26+/m0/s1

>  <Activity>  (23) 
Inactive

$$$$
P23316_23
     RDKit          3D

 43 45  0  0  1  0  0  0  0  0999 V2000
   -2.6366    4.4443   -0.9666 C   0  0  0  0  0  0  0  0  0  0  0  0
   -3.8541    5.9091    0.4163 C   0  0  0  0  0  0  0  0  0  0  0  0
   -3.8146   -0.7260   -0.7770 C   0  0  0  0  0  0  0  0  0  0  0  0
   -2.4170   -5.2835   -0.8236 C   0  0  0  0  0  0  0  0  0  0  0  0
   -1.7310   -4.0990   -0.6333 C   0  0  0  0  0  0  0  0  0  0  0  0
   -4.7062    3.7291    0.3559 C   0  0  0  0  0  0  0  0  0  0  0  0
   -4.4085   -4.0710   -1.0198 C   0  0  0  0  0  0  0  0  0  0  0  0
    5.0882   -1.1915    1.0062 C   0  0  0  0  0  0  0  0  0  0  0  0
    7.0937   -2.5506    0.2529 C   0  0  0  0  0  0  0  0  0  0  0  0
   -3.4692    4.4465    0.2566 C   0  0  0  0  0  0  0  0  0  0  0  0
   -2.4143   -0.6040   -1.5123 C   0  0  1  0  0  0  0  0  0  0  0  0
    6.2924   -1.3370    0.3943 C   0  0  0  0  0  0  0  0  0  0  0  0
   -3.7777   -5.2647   -1.0196 C   0  0  0  0  0  0  0  0  0  0  0  0
   -4.4723    2.0987    0.1193 C   0  0  1  0  0  0  0  0  0  0  0  0
   -2.4423   -2.9504   -0.6484 C   0  0  0  0  0  0  0  0  0  0  0  0
   -2.0420    0.8445   -0.6929 C   0  0  1  0  0  0  0  0  0  0  0  0
    0.1332    1.0546    0.9440 C   0  0  1  0  0  0  0  0  0  0  0  0
   -1.5906   -1.6180   -0.4149 C   0  0  1  0  0  0  0  0  0  0  0  0
    1.5541    0.3268    2.8158 C   0  0  1  0  0  0  0  0  0  0  0  0
    3.1928   -0.2034    2.7990 C   0  0  2  0  0  0  0  0  0  0  0  0
    1.3611   -0.1398    1.1818 C   0  0  2  0  0  0  0  0  0  0  0  0
   -3.8888    2.2883   -1.3725 C   0  0  0  0  0  0  0  0  0  0  0  0
   -0.6057    1.0746   -1.3722 C   0  0  0  0  0  0  0  0  0  0  0  0
    3.5095    0.6323    1.4198 C   0  0  0  0  0  0  0  0  0  0  0  0
    0.9511    2.3284    1.4380 C   0  0  0  0  0  0  0  0  0  0  0  0
    5.6933    0.7674    0.2154 C   0  0  0  0  0  0  0  0  0  0  0  0
   -3.0431    2.0662    0.8179 N   0  0  0  0  0  0  0  0  0  0  0  0
   -3.7241   -2.9417   -0.8339 N   0  0  0  0  0  0  0  0  0  0  0  0
    6.6388   -0.1345   -0.0776 N   0  0  0  0  0  0  0  0  0  0  0  0
   -2.8298    1.7327   -1.6989 N   0  0  0  0  0  0  0  0  0  0  0  0
    0.3983    1.1705   -0.5965 N   0  0  0  0  0  0  0  0  0  0  0  0
    4.7115    0.1088    0.8991 N   0  0  0  0  0  0  0  0  0  0  0  0
    6.7014   -3.6415    0.7230 O   0  0  0  0  0  0  0  0  0  0  0  0
   -4.4575   -6.4944   -1.2125 O   0  0  0  0  0  0  0  0  0  0  0  0
   -0.4900   -1.9609   -1.4261 O   0  0  0  0  0  0  0  0  0  0  0  0
    1.0102   -0.9577    3.3637 O   0  0  0  0  0  0  0  0  0  0  0  0
    2.9548   -1.5342    2.0900 O   0  0  0  0  0  0  0  0  0  0  0  0
   -4.6571    3.0922   -2.2120 O   0  0  0  0  0  0  0  0  0  0  0  0
   -0.4950    1.1591   -2.7107 O   0  0  0  0  0  0  0  0  0  0  0  0
    1.5485    3.0628    0.6781 O   0  0  0  0  0  0  0  0  0  0  0  0
    0.9679    2.5892    2.7899 O   0  0  0  0  0  0  0  0  0  0  0  0
    5.6570    2.1137   -0.0854 O   0  0  0  0  0  0  0  0  0  0  0  0
    2.5095    0.6637    0.6919 O   0  0  0  0  0  0  0  0  0  0  0  0
  1 10  1  0
  2 10  1  0
 11  3  1  1
  4  5  2  0
  4 13  1  0
  5 15  1  0
  6 10  1  0
  6 14  1  0
  7 13  2  0
  7 28  1  0
  8 12  2  0
  8 32  1  0
  9 12  1  0
  9 33  2  0
 11 16  1  0
 11 18  1  0
 12 29  1  0
 13 34  1  0
 14 22  1  0
 14 27  1  1
 15 18  1  0
 15 28  2  0
 16 23  1  0
 16 30  1  6
 17 21  1  0
 17 25  1  0
 17 31  1  6
 18 35  1  6
 19 20  1  0
 19 21  1  0
 19 36  1  1
 20 24  1  0
 20 37  1  6
 21 43  1  6
 22 30  2  3
 22 38  1  0
 23 31  2  3
 23 39  1  0
 24 32  1  0
 24 43  1  0
 25 40  2  0
 25 41  1  0
 26 29  2  0
 26 32  1  0
 26 42  1  0
M  END
>  <InChI>  (24) 
InChI=1S/C26H36N6O11/c1-10(2)6-14(27)22(38)30-16(11(3)18(35)15-5-4-13(34)7-28-15)23(39)31-17(25(40)41)21-19(36)20(37)24(43-21)32-8-12(9-33)29-26(32)42/h4-5,7-11,14,16-21,24,34-37H,6,27H2,1-3H3,(H,29,42)(H,30,38)(H,31,39)(H,40,41)/t11-,14-,16-,17-,18-,19-,20+,21+,24?/m0/s1

>  <Activity>  (24) 
No data

$$$$
P23316_24
     RDKit          3D

 25 26  0  0  1  0  0  0  0  0999 V2000
   -0.5005    2.0767   -1.5485 C   0  0  0  0  0  0  0  0  0  0  0  0
    5.0097    3.9436   -0.4352 C   0  0  0  0  0  0  0  0  0  0  0  0
    5.3232    3.6864    1.9542 C   0  0  0  0  0  0  0  0  0  0  0  0
    6.9128    2.5932    0.3407 C   0  0  0  0  0  0  0  0  0  0  0  0
    0.6742    1.5078   -0.8202 C   0  0  0  0  0  0  0  0  0  0  0  0
    1.1685    0.2476   -1.4117 C   0  0  0  0  0  0  0  0  0  0  0  0
    3.1409   -0.6100    0.5176 C   0  0  0  0  0  0  0  0  0  0  0  0
    3.9453    0.6278    0.5486 C   0  0  0  0  0  0  0  0  0  0  0  0
    1.8776   -0.4242    0.9128 C   0  0  0  0  0  0  0  0  0  0  0  0
   -2.7993    0.8674    1.8534 C   0  0  0  0  0  0  0  0  0  0  0  0
   -3.9362    0.1707    1.5232 C   0  0  0  0  0  0  0  0  0  0  0  0
   -1.5751    0.4780    1.3867 C   0  0  0  0  0  0  0  0  0  0  0  0
   -2.4591   -2.5636   -0.6364 C   0  0  0  0  0  0  0  0  0  0  0  0
   -3.6949   -3.2018   -1.1110 C   0  0  0  0  0  0  0  0  0  0  0  0
    4.6968    1.7755    0.5940 C   0  0  0  0  0  0  0  0  0  0  0  0
    0.0871   -0.8804   -1.3599 C   0  0  0  0  0  0  0  0  0  0  0  0
    0.8529   -1.5365    0.9736 C   0  0  0  0  0  0  0  0  0  0  0  0
   -2.6090   -1.3622    0.2305 C   0  0  0  0  0  0  0  0  0  0  0  0
   -3.8609   -0.9387    0.7249 C   0  0  0  0  0  0  0  0  0  0  0  0
   -1.4574   -0.6522    0.5636 C   0  0  0  0  0  0  0  0  0  0  0  0
   -4.9370   -2.6525   -0.5048 C   0  0  0  0  0  0  0  0  0  0  0  0
    5.4325    2.8724    0.6394 C   0  0  0  0  0  0  0  0  0  0  0  0
   -4.9852   -1.6572    0.2913 N   0  0  0  0  0  0  0  0  0  0  0  0
   -0.1897   -1.0317    0.0718 N   0  0  0  0  0  0  0  0  0  0  0  0
   -6.1170   -3.3362   -0.8989 O   0  0  0  0  0  0  0  0  0  0  0  0
  1  5  1  0
  2 22  1  0
  3 22  1  0
  4 22  1  0
  5  6  1  0
  6 16  1  0
  7  8  1  0
  7  9  2  0
  8 15  3  0
  9 17  1  0
 10 11  2  0
 10 12  1  0
 11 19  1  0
 12 20  2  0
 13 14  1  0
 13 18  1  0
 14 21  1  0
 15 22  1  0
 16 24  1  0
 17 24  1  0
 18 19  2  0
 18 20  1  0
 19 23  1  0
 20 24  1  0
 21 23  2  0
 21 25  1  0
M  END
>  <InChI>  (25) 
InChI=1S/C22H30N2O/c1-5-6-16-24(17-9-7-8-15-22(2,3)4)20-12-10-11-19-18(20)13-14-21(25)23-19/h7,9-12H,5-6,13-14,16-17H2,1-4H3,(H,23,25)/b9-7+

>  <Activity>  (25) 
No data

$$$$
P23316_25
     RDKit          3D

 22 23  0  0  1  0  0  0  0  0999 V2000
    5.9954   -1.2079   -1.0497 C   0  0  0  0  0  0  0  0  0  0  0  0
    6.7869    1.0627   -1.5765 C   0  0  0  0  0  0  0  0  0  0  0  0
   -2.8591    2.3867   -0.6342 C   0  0  0  0  0  0  0  0  0  0  0  0
    2.0977    1.5346   -0.5305 C   0  0  0  0  0  0  0  0  0  0  0  0
    3.4128    1.0951   -0.5364 C   0  0  0  0  0  0  0  0  0  0  0  0
    0.8770    1.9519   -0.5357 C   0  0  0  0  0  0  0  0  0  0  0  0
   -1.0754   -1.9465   -1.2132 C   0  0  0  0  0  0  0  0  0  0  0  0
   -1.9052   -2.5330   -0.3036 C   0  0  0  0  0  0  0  0  0  0  0  0
   -0.9645   -0.6040   -1.3006 C   0  0  0  0  0  0  0  0  0  0  0  0
   -3.2590    0.5750    1.3415 C   0  0  0  0  0  0  0  0  0  0  0  0
   -4.2363   -0.0041    2.2383 C   0  0  0  0  0  0  0  0  0  0  0  0
    4.5361    0.7106   -0.5602 C   0  0  0  0  0  0  0  0  0  0  0  0
   -0.4246    2.4051   -0.5237 C   0  0  0  0  0  0  0  0  0  0  0  0
   -2.5195   -0.3592    0.4407 C   0  0  0  0  0  0  0  0  0  0  0  0
   -2.6707   -1.7194    0.5739 C   0  0  0  0  0  0  0  0  0  0  0  0
   -1.6886    0.2448   -0.4696 C   0  0  0  0  0  0  0  0  0  0  0  0
   -4.2745   -1.5018    2.2792 C   0  0  0  0  0  0  0  0  0  0  0  0
    5.9587    0.2113   -0.5882 C   0  0  0  0  0  0  0  0  0  0  0  0
   -3.5599   -2.2227    1.5143 N   0  0  0  0  0  0  0  0  0  0  0  0
   -1.5578    1.6329   -0.5387 N   0  0  0  0  0  0  0  0  0  0  0  0
   -5.1521   -2.0216    3.2204 O   0  0  0  0  0  0  0  0  0  0  0  0
    6.4826    0.3095    0.6823 O   0  0  0  0  0  0  0  0  0  0  0  0
  1 18  1  0
  2 18  1  0
  3 20  1  0
  4  5  1  0
  4  6  3  0
  5 12  3  0
  6 13  1  0
  7  8  2  0
  7  9  1  0
  8 15  1  0
  9 16  2  0
 10 11  1  0
 10 14  1  0
 11 17  1  0
 12 18  1  0
 13 20  1  0
 14 15  2  0
 14 16  1  0
 15 19  1  0
 16 20  1  0
 17 19  2  0
 17 21  1  0
 18 22  1  0
M  END
>  <InChI>  (26) 
InChI=1S/C18H20N2O2/c1-18(2,22)12-5-4-6-13-20(3)16-9-7-8-15-14(16)10-11-17(21)19-15/h7-9,22H,10-11,13H2,1-3H3,(H,19,21)

>  <Activity>  (26) 
No data

$$$$
P23316_26
     RDKit          3D

 34 37  0  0  1  0  0  0  0  0999 V2000
   -7.1137   -1.6047   -1.3181 C   0  0  0  0  0  0  0  0  0  0  0  0
   -8.1327   -0.7312   -0.9889 C   0  0  0  0  0  0  0  0  0  0  0  0
   -5.8834   -1.4989   -0.7037 C   0  0  0  0  0  0  0  0  0  0  0  0
   -7.9078    0.2429   -0.0439 C   0  0  0  0  0  0  0  0  0  0  0  0
    5.6015   -2.0368   -1.6801 C   0  0  0  0  0  0  0  0  0  0  0  0
    4.6064   -1.1639   -1.2910 C   0  0  0  0  0  0  0  0  0  0  0  0
   -3.1688   -0.8628    1.0024 C   0  0  0  0  0  0  0  0  0  0  0  0
   -4.9319    0.8552    1.7583 C   0  0  0  0  0  0  0  0  0  0  0  0
   -4.5163   -0.2359    0.9809 C   0  0  0  0  0  0  0  0  0  0  0  0
   -5.6300   -0.5499    0.2315 C   0  0  0  0  0  0  0  0  0  0  0  0
   -2.5260   -0.2249   -0.3825 C   0  0  1  0  0  0  0  0  0  0  0  0
   -6.6743    0.3262    0.5524 C   0  0  0  0  0  0  0  0  0  0  0  0
    6.6936   -2.2181   -0.8552 C   0  0  0  0  0  0  0  0  0  0  0  0
    0.3870    0.9880   -0.4261 C   0  0  0  0  0  0  0  0  0  0  0  0
    2.4022    2.3435   -0.6118 C   0  0  1  0  0  0  0  0  0  0  0  0
    3.9536    1.7016   -0.8033 C   0  0  2  0  0  0  0  0  0  0  0  0
    1.8459    1.0647    0.3984 C   0  0  2  0  0  0  0  0  0  0  0  0
   -1.1112   -0.9485   -0.2432 C   0  0  0  0  0  0  0  0  0  0  0  0
    3.6672    0.4779    0.3909 C   0  0  2  0  0  0  0  0  0  0  0  0
   -0.3298    2.0315    0.3318 C   0  0  0  0  0  0  0  0  0  0  0  0
    5.7594   -0.7012    0.6346 C   0  0  0  0  0  0  0  0  0  0  0  0
   -3.1813   -1.3231   -1.3094 N   0  0  0  0  0  0  0  0  0  0  0  0
   -6.1888    1.1441    1.4749 N   0  0  0  0  0  0  0  0  0  0  0  0
    6.7816   -1.5546    0.3047 N   0  0  0  0  0  0  0  0  0  0  0  0
   -0.0630   -0.3151   -0.2830 N   0  0  0  0  0  0  0  0  0  0  0  0
    4.7083   -0.5433   -0.1863 N   0  0  0  0  0  0  0  0  0  0  0  0
    7.7269   -3.1093   -1.2342 O   0  0  0  0  0  0  0  0  0  0  0  0
    2.6175    3.2398    0.5669 O   0  0  0  0  0  0  0  0  0  0  0  0
    4.7575    2.5707    0.0949 O   0  0  0  0  0  0  0  0  0  0  0  0
   -1.1794   -2.2992   -0.0811 O   0  0  0  0  0  0  0  0  0  0  0  0
    0.0335    3.2188    0.1806 O   0  0  0  0  0  0  0  0  0  0  0  0
   -1.3781    1.8301    1.2061 O   0  0  0  0  0  0  0  0  0  0  0  0
    5.8932   -0.1054    1.7321 O   0  0  0  0  0  0  0  0  0  0  0  0
    2.4812   -0.0081   -0.4679 O   0  0  0  0  0  0  0  0  0  0  0  0
  1  2  2  0
  1  3  1  0
  2  4  1  0
  3 10  2  0
  4 12  2  0
  5  6  2  0
  5 13  1  0
  6 26  1  0
  7  9  1  0
  7 11  1  0
  8  9  2  0
  8 23  1  0
  9 10  1  0
 10 12  1  0
 11 18  1  0
 11 22  1  6
 12 23  1  0
 13 24  2  0
 13 27  1  0
 17 14  1  6
 14 20  1  0
 14 25  1  0
 15 16  1  0
 15 17  1  0
 15 28  1  1
 16 19  1  0
 16 29  1  1
 17 34  1  0
 18 25  2  3
 18 30  1  0
 19 26  1  6
 19 34  1  0
 20 31  2  0
 20 32  1  0
 21 24  1  0
 21 26  1  0
 21 33  2  0
M  END
>  <InChI>  (27) 
InChI=1S/C21H23N5O8/c22-11(7-9-8-23-12-4-2-1-3-10(9)12)18(30)25-14(20(31)32)17-15(28)16(29)19(34-17)26-6-5-13(27)24-21(26)33/h1-6,8,11,14-17,19,23,28-29H,7,22H2,(H,25,30)(H,31,32)(H,24,27,33)/t11-,14?,15-,16+,17+,19+/m0/s1

>  <Activity>  (27) 
Inactive

$$$$
P23316_27
     RDKit          3D

 23 24  0  0  1  0  0  0  0  0999 V2000
    0.2620   -3.4408    1.8780 C   0  0  0  0  0  0  0  0  0  0  0  0
    6.8348    1.8369   -0.3296 C   0  0  0  0  0  0  0  0  0  0  0  0
    5.3397    3.7230   -1.1325 C   0  0  0  0  0  0  0  0  0  0  0  0
    5.4678    1.7247   -2.4811 C   0  0  0  0  0  0  0  0  0  0  0  0
    0.5830   -2.6632    0.6045 C   0  0  0  0  0  0  0  0  0  0  0  0
    2.2980    0.5184    0.8094 C   0  0  0  0  0  0  0  0  0  0  0  0
    3.2690    1.0321    0.2870 C   0  0  0  0  0  0  0  0  0  0  0  0
    1.3132    0.0547    1.2287 C   0  0  0  0  0  0  0  0  0  0  0  0
   -2.1366   -0.6764   -2.4124 C   0  0  0  0  0  0  0  0  0  0  0  0
   -3.3950   -0.3839   -2.0281 C   0  0  0  0  0  0  0  0  0  0  0  0
   -1.0218   -1.0099   -1.7173 C   0  0  0  0  0  0  0  0  0  0  0  0
   -2.6689   -1.1952    1.6337 C   0  0  0  0  0  0  0  0  0  0  0  0
   -3.5135   -0.0870    2.1881 C   0  0  0  0  0  0  0  0  0  0  0  0
    4.4724    1.6468   -0.3754 C   0  0  0  0  0  0  0  0  0  0  0  0
    0.1369   -0.5014    1.7338 C   0  0  0  0  0  0  0  0  0  0  0  0
   -2.4597   -0.7774    0.1485 C   0  0  0  0  0  0  0  0  0  0  0  0
   -3.5440   -0.4262   -0.4766 C   0  0  0  0  0  0  0  0  0  0  0  0
   -1.1791   -1.0793   -0.3614 C   0  0  0  0  0  0  0  0  0  0  0  0
   -4.7285    0.2416    1.4777 C   0  0  0  0  0  0  0  0  0  0  0  0
    5.5491    2.1805   -0.9444 C   0  0  0  0  0  0  0  0  0  0  0  0
   -4.7215    0.0773    0.1145 N   0  0  0  0  0  0  0  0  0  0  0  0
   -0.2198   -1.4739    0.5958 N   0  0  0  0  0  0  0  0  0  0  0  0
   -5.9374    0.6787    1.9234 O   0  0  0  0  0  0  0  0  0  0  0  0
  1  5  1  0
  2 20  1  0
  3 20  1  0
  4 20  1  0
  5 22  1  0
  6  7  1  0
  6  8  2  0
  7 14  3  0
  8 15  1  0
  9 10  2  0
  9 11  1  0
 10 17  1  0
 11 18  2  0
 12 13  1  0
 12 16  1  0
 13 19  1  0
 14 20  1  0
 15 22  1  0
 16 17  2  0
 16 18  1  0
 17 21  1  0
 18 22  1  0
 19 21  2  0
 19 23  1  0
M  END
>  <InChI>  (28) 
InChI=1S/C20H26N2O/c1-5-22(15-8-6-7-14-20(2,3)4)18-11-9-10-17-16(18)12-13-19(23)21-17/h6,8-11H,5,12-13,15H2,1-4H3,(H,21,23)/b8-6+

>  <Activity>  (28) 
No data

$$$$
P23316_28
     RDKit          2D

 29 30  0  0  1  0  0  0  0  0999 V2000
    1.5000    0.0000    0.0000 C   0  0  0  0  0  0  0  0  0  0  0  0
   -9.4121  -12.6296    0.0000 C   0  0  0  0  0  0  0  0  0  0  0  0
    0.7500   -1.2990    0.0000 C   0  0  0  0  0  0  0  0  0  0  0  0
   -9.2553  -11.1379    0.0000 C   0  0  0  0  0  0  0  0  0  0  0  0
   -7.7282   -9.0360    0.0000 C   0  0  0  0  0  0  0  0  0  0  0  0
   -6.3579   -8.4259    0.0000 C   0  0  0  0  0  0  0  0  0  0  0  0
    0.7500    1.2990    0.0000 C   0  0  0  0  0  0  0  0  0  0  0  0
   -4.6740   -4.8322    0.0000 C   0  0  0  0  0  0  0  0  0  0  0  0
   -2.0046   -4.9721    0.0000 C   0  0  0  0  0  0  0  0  0  0  0  0
   -0.8899   -3.9684    0.0000 C   0  0  0  0  0  0  0  0  0  0  0  0
   -3.3037   -4.2221    0.0000 C   0  0  0  0  0  0  0  0  0  0  0  0
   -6.2011   -6.9341    0.0000 C   0  0  0  0  0  0  0  0  0  0  0  0
   -1.5000   -2.5981    0.0000 C   0  0  0  0  0  0  0  0  0  0  0  0
   -5.8875   -3.9505    0.0000 C   0  0  0  0  0  0  0  0  0  0  0  0
   -1.5000    0.0000    0.0000 C   0  0  0  0  0  0  0  0  0  0  0  0
  -10.7824  -13.2397    0.0000 N   0  0  0  0  0  0  0  0  0  0  0  0
   -5.1443   -9.3075    0.0000 N   0  0  0  0  0  0  0  0  0  0  0  0
   -0.7500    1.2990    0.0000 N   0  0  0  0  0  0  0  0  0  0  0  0
   -4.8308   -6.3240    0.0000 N   0  0  0  0  0  0  0  0  0  0  0  0
   -0.7500   -1.2990    0.0000 N   0  0  0  0  0  0  0  0  0  0  0  0
    1.5000    2.5981    0.0000 O   0  0  0  0  0  0  0  0  0  0  0  0
   -1.8478   -6.4639    0.0000 O   0  0  0  0  0  0  0  0  0  0  0  0
    0.5773   -4.2803    0.0000 O   0  0  0  0  0  0  0  0  0  0  0  0
   -7.4146   -6.0524    0.0000 O   0  0  0  0  0  0  0  0  0  0  0  0
   -5.7307   -2.4587    0.0000 O   0  0  0  0  0  0  0  0  0  0  0  0
   -7.2578   -4.5606    0.0000 O   0  0  0  0  0  0  0  0  0  0  0  0
   -3.0000    0.0000    0.0000 O   0  0  0  0  0  0  0  0  0  0  0  0
   -7.8850  -10.5278    0.0000 O   0  0  0  0  0  0  0  0  0  0  0  0
   -2.9918   -2.7549    0.0000 O   0  0  0  0  0  0  0  0  0  0  0  0
  1  3  2  0
  1  7  1  0
  2  4  1  0
  2 16  1  0
  3 20  1  0
  4 28  1  0
  5  6  1  0
  5 28  1  0
  6 12  1  0
  6 17  1  1
  7 18  2  0
  7 21  1  0
  8 11  1  0
  8 14  1  0
  8 19  1  6
  9 10  1  0
  9 11  1  0
  9 22  1  6
 10 13  1  0
 10 23  1  6
 11 29  1  1
 12 19  2  3
 12 24  1  0
 13 20  1  1
 13 29  1  0
 14 25  2  0
 14 26  1  0
 15 18  1  0
 15 20  1  0
 15 27  2  0
M  END
>  <InChI>  (29) 
InChI=1S/C15H23N5O9/c16-2-4-28-5-6(17)12(24)19-8(14(25)26)11-9(22)10(23)13(29-11)20-3-1-7(21)18-15(20)27/h1,3,6,8-11,13,22-23H,2,4-5,16-17H2,(H,19,24)(H,25,26)(H,18,21,27)/t6-,8-,9-,10+,11+,13+/m0/s1

>  <Activity>  (29) 
No data

$$$$
P23316_29
     RDKit          3D

 43 44  0  0  1  0  0  0  0  0999 V2000
   -4.1802   -5.2413   -2.7607 C   0  0  0  0  0  0  0  0  0  0  0  0
   -1.8003   -5.8527   -2.3681 C   0  0  0  0  0  0  0  0  0  0  0  0
   -2.8188   -3.9470   -1.0970 C   0  0  0  0  0  0  0  0  0  0  0  0
    4.8961    0.0008    1.3311 C   0  0  0  0  0  0  0  0  0  0  0  0
    6.6094    0.7859    3.0082 C   0  0  0  0  0  0  0  0  0  0  0  0
   -3.9777    3.5204    0.4094 C   0  0  0  0  0  0  0  0  0  0  0  0
   -2.7989   -4.7315   -2.4212 C   0  0  0  0  0  0  0  0  0  0  0  0
    5.4717   -0.0622    2.5836 C   0  0  0  0  0  0  0  0  0  0  0  0
   -3.8820   -2.7163   -1.4270 C   0  0  1  0  0  0  0  0  0  0  0  0
   -3.1794    2.1197    0.6902 C   0  0  1  0  0  0  0  0  0  0  0  0
   -3.0234    0.0668   -0.9312 C   0  0  1  0  0  0  0  0  0  0  0  0
    0.6699    0.8818   -0.6624 C   0  0  1  0  0  0  0  0  0  0  0  0
   -4.0069    1.2935   -0.5293 C   0  0  2  0  0  0  0  0  0  0  0  0
    1.2103   -1.5306   -0.7644 C   0  0  1  0  0  0  0  0  0  0  0  0
    2.8158   -2.1398   -0.8299 C   0  0  2  0  0  0  0  0  0  0  0  0
    1.5854   -0.1768   -1.7180 C   0  0  2  0  0  0  0  0  0  0  0  0
    4.9621   -0.9655    3.4964 C   0  0  0  0  0  0  0  0  0  0  0  0
   -3.7430   -2.0615    0.0404 C   0  0  0  0  0  0  0  0  0  0  0  0
   -1.5948    0.3778   -0.4469 C   0  0  0  0  0  0  0  0  0  0  0  0
    3.3247   -0.6730   -0.3061 C   0  0  0  0  0  0  0  0  0  0  0  0
    0.9795    2.1975   -1.5135 C   0  0  0  0  0  0  0  0  0  0  0  0
   -3.6152    5.8052    0.9213 C   0  0  0  0  0  0  0  0  0  0  0  0
    3.3991   -1.6401    1.8782 C   0  0  0  0  0  0  0  0  0  0  0  0
   -2.7625   -1.8396   -2.1349 N   0  0  0  0  0  0  0  0  0  0  0  0
   -4.5041    6.1732    0.0311 N   0  0  0  0  0  0  0  0  0  0  0  0
   -3.3905   -0.9202    0.2411 N   0  0  0  0  0  0  0  0  0  0  0  0
   -0.7038    0.5893   -1.3314 N   0  0  0  0  0  0  0  0  0  0  0  0
    3.9406   -1.7287    3.1184 N   0  0  0  0  0  0  0  0  0  0  0  0
    3.8506   -0.7821    0.9478 N   0  0  0  0  0  0  0  0  0  0  0  0
    7.0035    1.6340    1.9867 O   0  0  0  0  0  0  0  0  0  0  0  0
   -1.9389    2.5538   -0.0459 O   0  0  0  0  0  0  0  0  0  0  0  0
   -3.8882    2.2658   -1.6251 O   0  0  0  0  0  0  0  0  0  0  0  0
    0.7451   -2.3579   -1.9219 O   0  0  0  0  0  0  0  0  0  0  0  0
    3.0692   -1.8514   -2.3009 O   0  0  0  0  0  0  0  0  0  0  0  0
    5.5305   -1.0407    4.7606 O   0  0  0  0  0  0  0  0  0  0  0  0
   -4.0654   -2.9268    1.0429 O   0  0  0  0  0  0  0  0  0  0  0  0
   -1.4247    0.3935    0.8972 O   0  0  0  0  0  0  0  0  0  0  0  0
    2.1082    2.6611   -1.1438 O   0  0  0  0  0  0  0  0  0  0  0  0
    0.1863    2.7124   -2.4470 O   0  0  0  0  0  0  0  0  0  0  0  0
   -3.1728    6.8176    1.7613 O   0  0  0  0  0  0  0  0  0  0  0  0
    2.4387   -2.3717    1.5523 O   0  0  0  0  0  0  0  0  0  0  0  0
   -3.1527    4.5204    1.0215 O   0  0  0  0  0  0  0  0  0  0  0  0
    2.8277    0.1870   -0.9931 O   0  0  0  0  0  0  0  0  0  0  0  0
  1  7  1  0
  2  7  1  0
  3  7  1  0
  3  9  1  0
  4  8  2  0
  4 29  1  0
  5  8  1  0
  5 30  1  0
  6 10  1  0
  6 42  1  0
  8 17  1  0
  9 18  1  0
  9 24  1  6
 10 13  1  0
 10 31  1  6
 11 13  1  0
 11 19  1  0
 11 26  1  1
 12 16  1  0
 12 21  1  0
 12 27  1  6
 13 32  1  6
 14 15  1  0
 14 16  1  0
 14 33  1  6
 15 20  1  0
 15 34  1  6
 16 43  1  1
 17 28  2  0
 17 35  1  0
 18 26  2  3
 18 36  1  0
 19 27  2  3
 19 37  1  0
 20 29  1  0
 20 43  1  0
 21 38  2  0
 21 39  1  0
 22 25  2  0
 22 40  1  0
 22 42  1  0
 23 28  1  0
 23 29  1  0
 23 41  2  0
M  END
>  <InChI>  (30) 
InChI=1S/C23H36N6O14/c1-7(2)3-9(24)18(36)26-11(13(32)10(31)6-42-22(25)40)19(37)27-12(21(38)39)16-14(33)15(34)20(43-16)29-4-8(5-30)17(35)28-23(29)41/h4,7,9-16,20,30-34H,3,5-6,24H2,1-2H3,(H2,25,40)(H,26,36)(H,27,37)(H,38,39)(H,28,35,41)/t9-,10-,11-,12-,13+,14-,15+,16+,20?/m0/s1

>  <Activity>  (30) 
No data

$$$$
P23316_30
     RDKit          3D

 22 23  0  0  1  0  0  0  0  0999 V2000
    5.5033   -0.1644   -1.2124 C   0  0  0  0  0  0  0  0  0  0  0  0
    5.3391   -1.8225    0.6601 C   0  0  0  0  0  0  0  0  0  0  0  0
    6.5547    0.3253    0.9292 C   0  0  0  0  0  0  0  0  0  0  0  0
   -0.0465   -2.3015   -0.7117 C   0  0  0  0  0  0  0  0  0  0  0  0
    1.8368    1.2451    1.6762 C   0  0  0  0  0  0  0  0  0  0  0  0
    3.0620    0.6884    1.1782 C   0  0  0  0  0  0  0  0  0  0  0  0
    0.7247    0.5309    1.6495 C   0  0  0  0  0  0  0  0  0  0  0  0
   -1.1321    2.2599   -1.4419 C   0  0  0  0  0  0  0  0  0  0  0  0
   -2.4940    2.0770   -1.4741 C   0  0  0  0  0  0  0  0  0  0  0  0
   -0.3245    1.2461   -0.9776 C   0  0  0  0  0  0  0  0  0  0  0  0
   -2.8005   -1.3716   -0.1295 C   0  0  0  0  0  0  0  0  0  0  0  0
   -4.2519   -1.4789   -0.1986 C   0  0  0  0  0  0  0  0  0  0  0  0
    4.1036    0.2263    0.7762 C   0  0  0  0  0  0  0  0  0  0  0  0
    0.8234   -0.8419    1.0880 C   0  0  0  0  0  0  0  0  0  0  0  0
   -2.2609   -0.0996   -0.5927 C   0  0  0  0  0  0  0  0  0  0  0  0
   -3.0815    0.8946   -1.0502 C   0  0  0  0  0  0  0  0  0  0  0  0
   -0.8653    0.0576   -0.5477 C   0  0  0  0  0  0  0  0  0  0  0  0
   -5.0486   -0.3642   -0.7021 C   0  0  0  0  0  0  0  0  0  0  0  0
    5.3615   -0.3531    0.2907 C   0  0  0  0  0  0  0  0  0  0  0  0
   -4.5094    0.7342   -1.0964 N   0  0  0  0  0  0  0  0  0  0  0  0
   -0.0428   -1.0061   -0.0625 N   0  0  0  0  0  0  0  0  0  0  0  0
   -6.4513   -0.4815   -0.7634 O   0  0  0  0  0  0  0  0  0  0  0  0
  1 19  1  0
  2 19  1  0
  3 19  1  0
  4 21  1  0
  5  6  1  0
  5  7  2  0
  6 13  3  0
  7 14  1  0
  8  9  2  0
  8 10  1  0
  9 16  1  0
 10 17  2  0
 11 12  1  0
 11 15  1  0
 12 18  1  0
 13 19  1  0
 14 21  1  0
 15 16  2  0
 15 17  1  0
 16 20  1  0
 17 21  1  0
 18 20  2  0
 18 22  1  0
M  END
>  <InChI>  (31) 
InChI=1S/C19H24N2O/c1-19(2,3)13-6-5-7-14-21(4)17-10-8-9-16-15(17)11-12-18(22)20-16/h5,7-10H,11-12,14H2,1-4H3,(H,20,22)/b7-5-

>  <Activity>  (31) 
No data

$$$$
P23316_31
     RDKit          3D

 34 35  0  0  1  0  0  0  0  0999 V2000
    9.3619    1.3888    1.9724 C   0  0  0  0  0  0  0  0  0  0  0  0
    8.2759    0.6183    1.2689 C   0  0  0  0  0  0  0  0  0  0  0  0
    8.8509   -0.2006    0.1187 C   0  0  0  0  0  0  0  0  0  0  0  0
    7.7903   -0.9591   -0.5765 C   0  0  0  0  0  0  0  0  0  0  0  0
    7.0422   -1.9380    0.2913 C   0  0  0  0  0  0  0  0  0  0  0  0
    6.0020   -2.6079   -0.6151 C   0  0  0  0  0  0  0  0  0  0  0  0
    5.0890   -1.5331   -1.1581 C   0  0  0  0  0  0  0  0  0  0  0  0
    4.3912   -0.8133   -0.0303 C   0  0  0  0  0  0  0  0  0  0  0  0
    3.4850    0.2550   -0.6005 C   0  0  0  0  0  0  0  0  0  0  0  0
    2.7618    1.0073    0.4777 C   0  0  0  0  0  0  0  0  0  0  0  0
   -6.2449   -0.0713   -2.8874 C   0  0  0  0  0  0  0  0  0  0  0  0
   -5.6783   -0.4001   -1.6339 C   0  0  0  0  0  0  0  0  0  0  0  0
    1.8961    0.0867    1.3155 C   0  0  0  0  0  0  0  0  0  0  0  0
   -5.8667    1.0917   -3.5207 C   0  0  0  0  0  0  0  0  0  0  0  0
   -1.0581    0.2818    1.5540 C   0  0  0  0  0  0  0  0  0  0  0  0
   -2.4592   -1.6294    0.9047 C   0  0  1  0  0  0  0  0  0  0  0  0
   -3.7343   -1.5660   -0.1930 C   0  0  2  0  0  0  0  0  0  0  0  0
   -2.6481   -0.0206    1.4151 C   0  0  2  0  0  0  0  0  0  0  0  0
    0.8935   -0.5629    0.4264 C   0  0  0  0  0  0  0  0  0  0  0  0
   -4.2074    0.0058    0.2824 C   0  0  2  0  0  0  0  0  0  0  0  0
   -0.9288    1.7434    1.5313 C   0  0  0  0  0  0  0  0  0  0  0  0
   -4.4287    1.5251   -1.6874 C   0  0  0  0  0  0  0  0  0  0  0  0
    2.7257   -0.8749    2.0104 N   0  0  0  0  0  0  0  0  0  0  0  0
   -4.9633    1.8687   -2.9056 N   0  0  0  0  0  0  0  0  0  0  0  0
   -0.3492   -0.4312    0.5940 N   0  0  0  0  0  0  0  0  0  0  0  0
   -4.7859    0.4124   -1.0740 N   0  0  0  0  0  0  0  0  0  0  0  0
   -6.3992    1.4518   -4.7532 O   0  0  0  0  0  0  0  0  0  0  0  0
   -3.1178   -2.1711    2.1177 O   0  0  0  0  0  0  0  0  0  0  0  0
   -4.8271   -2.2238    0.5557 O   0  0  0  0  0  0  0  0  0  0  0  0
    1.3370   -1.3469   -0.6321 O   0  0  0  0  0  0  0  0  0  0  0  0
   -0.2298    2.3934    0.7151 O   0  0  0  0  0  0  0  0  0  0  0  0
   -1.6258    2.4843    2.4777 O   0  0  0  0  0  0  0  0  0  0  0  0
   -3.5805    2.2587   -1.1143 O   0  0  0  0  0  0  0  0  0  0  0  0
   -2.7691    0.4770   -0.0016 O   0  0  0  0  0  0  0  0  0  0  0  0
  1  2  1  0
  2  3  1  0
  3  4  1  0
  4  5  1  0
  5  6  1  0
  6  7  1  0
  7  8  1  0
  8  9  1  0
  9 10  1  0
 10 13  1  0
 11 12  2  0
 11 14  1  0
 12 26  1  0
 13 19  1  0
 13 23  1  0
 14 24  2  0
 14 27  1  0
 18 15  1  6
 15 21  1  0
 15 25  1  0
 16 17  1  0
 16 18  1  0
 16 28  1  1
 17 20  1  0
 17 29  1  1
 18 34  1  0
 19 25  2  3
 19 30  1  0
 20 26  1  6
 20 34  1  0
 21 31  2  0
 21 32  1  0
 22 24  1  0
 22 26  1  0
 22 33  2  0
M  END
>  <InChI>  (32) 
InChI=1S/C22H36N4O8/c1-2-3-4-5-6-7-8-9-10-13(23)19(30)25-15(21(31)32)18-16(28)17(29)20(34-18)26-12-11-14(27)24-22(26)33/h11-13,15-18,20,28-29H,2-10,23H2,1H3,(H,25,30)(H,31,32)(H,24,27,33)/t13?,15?,16-,17+,18+,20+/m0/s1

>  <Activity>  (32) 
No data

$$$$
P23316_32
     RDKit          3D

 28 28  0  0  1  0  0  0  0  0999 V2000
    3.4518    1.2736   -1.0464 C   0  0  0  0  0  0  0  0  0  0  0  0
   -2.8898    2.7543    0.3317 C   0  0  0  0  0  0  0  0  0  0  0  0
   -1.8502    1.8847    0.4420 C   0  0  0  0  0  0  0  0  0  0  0  0
    4.1067    0.0173    0.9513 C   0  0  0  0  0  0  0  0  0  0  0  0
    4.1811    1.5530    0.4011 C   0  0  2  0  0  0  0  0  0  0  0  0
   -4.2015    2.2909    0.4624 C   0  0  0  0  0  0  0  0  0  0  0  0
    2.2914   -0.5946   -0.3177 C   0  0  0  0  0  0  0  0  0  0  0  0
    0.2192   -2.0612   -0.2267 C   0  0  0  0  0  0  0  0  0  0  0  0
   -1.1876   -1.6890    0.2363 C   0  0  0  0  0  0  0  0  0  0  0  0
    0.8549   -0.7640   -0.4370 C   0  0  0  0  0  0  0  0  0  0  0  0
   -0.9564   -0.3010    0.7864 C   0  0  0  0  0  0  0  0  0  0  0  0
    3.1172   -1.5512   -1.0824 C   0  0  0  0  0  0  0  0  0  0  0  0
   -3.3652    0.1573    0.7997 C   0  0  0  0  0  0  0  0  0  0  0  0
    2.8470    2.0066    1.1128 N   0  0  0  0  0  0  0  0  0  0  0  0
    2.7859   -0.4311    1.0438 N   0  0  0  0  0  0  0  0  0  0  0  0
   -4.4091    0.9971    0.6943 N   0  0  0  0  0  0  0  0  0  0  0  0
   -2.0735    0.5773    0.6771 N   0  0  0  0  0  0  0  0  0  0  0  0
   -5.2029    3.2330    0.3379 O   0  0  0  0  0  0  0  0  0  0  0  0
    0.8357   -3.0162    0.4907 O   0  0  0  0  0  0  0  0  0  0  0  0
   -1.9258   -1.6360   -0.9691 O   0  0  0  0  0  0  0  0  0  0  0  0
    4.0859   -2.0842   -0.5221 O   0  0  0  0  0  0  0  0  0  0  0  0
    2.7505   -1.7956   -2.3980 O   0  0  0  0  0  0  0  0  0  0  0  0
   -3.5547   -1.0648    1.0186 O   0  0  0  0  0  0  0  0  0  0  0  0
    0.0893    0.2440    0.0443 O   0  0  0  0  0  0  0  0  0  0  0  0
    1.2623   -0.6583   -0.0392 C   0  0  0  0  0  0  0  0  0  0  0  0
   -0.0323    0.0543    0.0019 C   0  0  0  0  0  0  0  0  0  0  0  0
   -0.0265    1.3071    0.0314 O   0  0  0  0  0  0  0  0  0  0  0  0
   -1.2035   -0.7031    0.0059 O   0  0  0  0  0  0  0  0  0  0  0  0
  5  1  1  6
  2  3  2  0
  2  6  1  0
  3 17  1  0
  4  5  1  0
  4 15  1  0
  5 14  1  0
  6 16  2  0
  6 18  1  0
  7 10  1  0
  7 12  1  0
  7 15  1  0
  8  9  1  0
  8 10  1  0
  8 19  1  0
  9 11  1  0
  9 20  1  0
 10 24  1  0
 11 17  1  0
 11 24  1  0
 12 21  2  0
 12 22  1  0
 13 16  1  0
 13 17  1  0
 13 23  2  0
 25 26  1  0
 26 27  2  0
 26 28  1  0
M  END
>  <InChI>  (33) 
InChI=1S/C13H20N4O7.C2H4O2/c1-5(14)4-15-7(12(21)22)10-8(19)9(20)11(24-10)17-3-2-6(18)16-13(17)23;1-2(3)4/h2-3,5,7-11,15,19-20H,4,14H2,1H3,(H,21,22)(H,16,18,23);1H3,(H,3,4)/t5-,7?,8?,9?,10?,11?;/m1./s1

>  <Activity>  (33) 
No data

$$$$
P23316_33
     RDKit          3D

 20 21  0  0  1  0  0  0  0  0999 V2000
    5.9812    2.2689    2.2571 C   0  0  0  0  0  0  0  0  0  0  0  0
   -0.2953   -3.2151    1.2653 C   0  0  0  0  0  0  0  0  0  0  0  0
    6.3607    0.9537    1.4740 C   0  0  0  0  0  0  0  0  0  0  0  0
    5.1609    0.4197    1.0504 C   0  0  0  0  0  0  0  0  0  0  0  0
    3.9722   -0.1101    0.6221 C   0  0  0  0  0  0  0  0  0  0  0  0
    2.7883   -0.6347    0.2177 C   0  0  0  0  0  0  0  0  0  0  0  0
    1.6769   -1.1335   -0.1616 C   0  0  0  0  0  0  0  0  0  0  0  0
   -4.0099   -1.0959    1.1031 C   0  0  0  0  0  0  0  0  0  0  0  0
   -4.0098    0.0734    0.4470 C   0  0  0  0  0  0  0  0  0  0  0  0
   -2.8243   -1.9039    1.0951 C   0  0  0  0  0  0  0  0  0  0  0  0
   -0.6240    0.2449   -0.9792 C   0  0  0  0  0  0  0  0  0  0  0  0
   -0.7195    1.4358   -1.7952 C   0  0  0  0  0  0  0  0  0  0  0  0
    0.5102   -1.6823   -0.5713 C   0  0  0  0  0  0  0  0  0  0  0  0
   -1.7993   -0.2063   -0.2681 C   0  0  0  0  0  0  0  0  0  0  0  0
   -2.9168    0.5946   -0.2789 C   0  0  0  0  0  0  0  0  0  0  0  0
   -1.7464   -1.4242    0.4034 C   0  0  0  0  0  0  0  0  0  0  0  0
   -1.9578    2.2697   -1.6985 C   0  0  0  0  0  0  0  0  0  0  0  0
   -2.9726    1.7916   -0.9658 N   0  0  0  0  0  0  0  0  0  0  0  0
   -0.4856   -2.1435    0.3829 N   0  0  0  0  0  0  0  0  0  0  0  0
   -2.0890    3.4972   -2.3156 O   0  0  0  0  0  0  0  0  0  0  0  0
  1  3  1  0
  2 19  1  0
  3  4  1  0
  4  5  3  0
  5  6  1  0
  6  7  3  0
  7 13  1  0
  8  9  2  0
  8 10  1  0
  9 15  1  0
 10 16  2  0
 11 12  1  0
 11 14  1  0
 12 17  1  0
 13 19  1  0
 14 15  2  0
 14 16  1  0
 15 18  1  0
 16 19  1  0
 17 18  2  0
 17 20  1  0
M  END
>  <InChI>  (34) 
InChI=1S/C17H18N2O/c1-3-4-5-6-7-13-19(2)16-10-8-9-15-14(16)11-12-17(20)18-15/h8-10H,3,11-13H2,1-2H3,(H,18,20)

>  <Activity>  (34) 
No data

$$$$
P23316_34
     RDKit          3D

 31 32  0  0  1  0  0  0  0  0999 V2000
    6.3259   -3.0723   -1.1162 C   0  0  0  0  0  0  0  0  0  0  0  0
    2.8475    2.9376    1.7698 C   0  0  0  0  0  0  0  0  0  0  0  0
    3.9880    3.9452   -0.1507 C   0  0  0  0  0  0  0  0  0  0  0  0
    5.6678   -2.5797    0.1516 C   0  0  0  0  0  0  0  0  0  0  0  0
   -4.9385   -1.7969   -0.4371 C   0  0  0  0  0  0  0  0  0  0  0  0
    4.8468   -1.3417   -0.1240 C   0  0  0  0  0  0  0  0  0  0  0  0
   -4.1005   -0.8834   -1.0886 C   0  0  0  0  0  0  0  0  0  0  0  0
    4.1618    1.5159    0.2171 C   0  0  0  0  0  0  0  0  0  0  0  0
    3.2408    2.7214    0.3307 C   0  0  0  0  0  0  0  0  0  0  0  0
    3.4425    0.3324    0.7189 C   0  0  0  0  0  0  0  0  0  0  0  0
   -4.9691   -1.6389    0.9462 C   0  0  0  0  0  0  0  0  0  0  0  0
   -0.1885   -0.3242    0.2681 C   0  0  0  0  0  0  0  0  0  0  0  0
   -0.2955    1.9225   -0.8923 C   0  0  1  0  0  0  0  0  0  0  0  0
   -1.6147    1.6106    0.1164 C   0  0  2  0  0  0  0  0  0  0  0  0
   -0.1629    0.2730   -1.2894 C   0  0  2  0  0  0  0  0  0  0  0  0
    2.1969   -0.0163    0.0101 C   0  0  0  0  0  0  0  0  0  0  0  0
   -2.5358    1.0043   -1.1955 C   0  0  2  0  0  0  0  0  0  0  0  0
   -0.2020   -1.7828    0.0029 C   0  0  0  0  0  0  0  0  0  0  0  0
   -3.4878    0.1332    0.9123 C   0  0  0  0  0  0  0  0  0  0  0  0
    4.1973   -0.8201    1.0238 N   0  0  0  0  0  0  0  0  0  0  0  0
   -4.2849   -0.7244    1.6122 N   0  0  0  0  0  0  0  0  0  0  0  0
    1.1523   -0.0148    0.7342 N   0  0  0  0  0  0  0  0  0  0  0  0
   -3.4332    0.0170   -0.3790 N   0  0  0  0  0  0  0  0  0  0  0  0
   -5.7900   -2.5241    1.6527 O   0  0  0  0  0  0  0  0  0  0  0  0
   -1.0107    2.3944   -2.1188 O   0  0  0  0  0  0  0  0  0  0  0  0
   -2.1661    3.0067   -0.0327 O   0  0  0  0  0  0  0  0  0  0  0  0
    2.0652   -0.3331   -1.3204 O   0  0  0  0  0  0  0  0  0  0  0  0
    0.7996   -2.5226    0.1851 O   0  0  0  0  0  0  0  0  0  0  0  0
   -1.3470   -2.3750   -0.4626 O   0  0  0  0  0  0  0  0  0  0  0  0
   -2.8652    0.9744    1.5810 O   0  0  0  0  0  0  0  0  0  0  0  0
   -1.5401   -0.0381   -1.6257 O   0  0  0  0  0  0  0  0  0  0  0  0
  1  4  1  0
  2  9  1  0
  3  9  1  0
  4  6  1  0
  5  7  2  0
  5 11  1  0
  6 20  1  0
  7 23  1  0
  8  9  1  0
  8 10  1  0
 10 16  1  0
 10 20  1  0
 11 21  2  0
 11 24  1  0
 15 12  1  1
 12 18  1  0
 12 22  1  0
 13 14  1  0
 13 15  1  0
 13 25  1  6
 14 17  1  0
 14 26  1  6
 15 31  1  0
 16 22  2  3
 16 27  1  0
 17 23  1  1
 17 31  1  0
 18 28  2  0
 18 29  1  0
 19 21  1  0
 19 23  1  0
 19 30  2  0
M  END
>  <InChI>  (35) 
InChI=1S/C19H30N4O8/c1-4-6-20-10(8-9(2)3)16(27)22-12(18(28)29)15-13(25)14(26)17(31-15)23-7-5-11(24)21-19(23)30/h5,7,9-10,12-15,17,20,25-26H,4,6,8H2,1-3H3,(H,22,27)(H,28,29)(H,21,24,30)/t10?,12?,13-,14+,15+,17+/m0/s1

>  <Activity>  (35) 
Inactive

$$$$
P23316_35
     RDKit          2D

 25 26  0  0  1  0  0  0  0  0999 V2000
   -7.7282   -9.0360    0.0000 C   0  0  0  0  0  0  0  0  0  0  0  0
    1.5000    0.0000    0.0000 C   0  0  0  0  0  0  0  0  0  0  0  0
    0.7500   -1.2990    0.0000 C   0  0  0  0  0  0  0  0  0  0  0  0
   -6.3579   -8.4259    0.0000 C   0  0  0  0  0  0  0  0  0  0  0  0
    0.7500    1.2990    0.0000 C   0  0  0  0  0  0  0  0  0  0  0  0
   -4.6740   -4.8322    0.0000 C   0  0  0  0  0  0  0  0  0  0  0  0
   -2.0046   -4.9721    0.0000 C   0  0  0  0  0  0  0  0  0  0  0  0
   -0.8899   -3.9684    0.0000 C   0  0  0  0  0  0  0  0  0  0  0  0
   -3.3037   -4.2221    0.0000 C   0  0  0  0  0  0  0  0  0  0  0  0
   -6.2011   -6.9341    0.0000 C   0  0  0  0  0  0  0  0  0  0  0  0
   -1.5000   -2.5981    0.0000 C   0  0  0  0  0  0  0  0  0  0  0  0
   -5.8875   -3.9505    0.0000 C   0  0  0  0  0  0  0  0  0  0  0  0
   -1.5000    0.0000    0.0000 C   0  0  0  0  0  0  0  0  0  0  0  0
   -5.1443   -9.3075    0.0000 N   0  0  0  0  0  0  0  0  0  0  0  0
   -0.7500    1.2990    0.0000 N   0  0  0  0  0  0  0  0  0  0  0  0
   -4.8308   -6.3240    0.0000 N   0  0  0  0  0  0  0  0  0  0  0  0
   -0.7500   -1.2990    0.0000 N   0  0  0  0  0  0  0  0  0  0  0  0
    1.5000    2.5981    0.0000 O   0  0  0  0  0  0  0  0  0  0  0  0
   -1.8478   -6.4639    0.0000 O   0  0  0  0  0  0  0  0  0  0  0  0
    0.5773   -4.2803    0.0000 O   0  0  0  0  0  0  0  0  0  0  0  0
   -7.4146   -6.0524    0.0000 O   0  0  0  0  0  0  0  0  0  0  0  0
   -5.7307   -2.4587    0.0000 O   0  0  0  0  0  0  0  0  0  0  0  0
   -7.2578   -4.5606    0.0000 O   0  0  0  0  0  0  0  0  0  0  0  0
   -3.0000    0.0000    0.0000 O   0  0  0  0  0  0  0  0  0  0  0  0
   -2.9918   -2.7549    0.0000 O   0  0  0  0  0  0  0  0  0  0  0  0
  4  1  1  6
  2  3  2  0
  2  5  1  0
  3 17  1  0
  4 10  1  0
  4 14  1  0
  5 15  2  0
  5 18  1  0
  6  9  1  0
  6 12  1  0
  6 16  1  1
  7  8  1  0
  7  9  1  0
  7 19  1  6
  8 11  1  0
  8 20  1  6
  9 25  1  1
 10 16  2  3
 10 21  1  0
 11 17  1  1
 11 25  1  0
 12 22  2  0
 12 23  1  0
 13 15  1  0
 13 17  1  0
 13 24  2  0
M  END
>  <InChI>  (36) 
InChI=1S/C13H18N4O8/c1-4(14)10(21)16-6(12(22)23)9-7(19)8(20)11(25-9)17-3-2-5(18)15-13(17)24/h2-4,6-9,11,19-20H,14H2,1H3,(H,16,21)(H,22,23)(H,15,18,24)/t4-,6-,7+,8-,9-,11-/m1/s1

>  <Activity>  (36) 
No data

$$$$
P23316_36
     RDKit          3D

 23 24  0  0  1  0  0  0  0  0999 V2000
    6.3732   -2.0541   -0.3195 C   0  0  0  0  0  0  0  0  0  0  0  0
    6.7641   -1.4654   -2.6312 C   0  0  0  0  0  0  0  0  0  0  0  0
   -0.8021    1.7187   -0.6472 C   0  0  0  0  0  0  0  0  0  0  0  0
    6.2918    0.6621    0.2154 C   0  0  0  0  0  0  0  0  0  0  0  0
    2.0258   -0.4665   -1.7867 C   0  0  0  0  0  0  0  0  0  0  0  0
    3.5098   -0.6014   -1.6541 C   0  0  0  0  0  0  0  0  0  0  0  0
    0.7601   -0.3717   -1.9075 C   0  0  0  0  0  0  0  0  0  0  0  0
   -2.0765   -1.7315    2.2335 C   0  0  0  0  0  0  0  0  0  0  0  0
   -3.2802   -1.1274    2.6685 C   0  0  0  0  0  0  0  0  0  0  0  0
   -1.3731   -1.3284    1.1030 C   0  0  0  0  0  0  0  0  0  0  0  0
   -3.4315    1.6315    0.0510 C   0  0  0  0  0  0  0  0  0  0  0  0
   -4.7390    2.0971    0.5100 C   0  0  0  0  0  0  0  0  0  0  0  0
    4.7506   -0.7307   -1.5285 C   0  0  0  0  0  0  0  0  0  0  0  0
   -0.7967   -0.2824   -2.0517 C   0  0  0  0  0  0  0  0  0  0  0  0
   -3.0666    0.2924    0.8536 C   0  0  0  0  0  0  0  0  0  0  0  0
   -3.7482   -0.0297    1.8518 C   0  0  0  0  0  0  0  0  0  0  0  0
   -1.8690   -0.2271    0.3228 C   0  0  0  0  0  0  0  0  0  0  0  0
   -5.3384    1.5660    1.6296 C   0  0  0  0  0  0  0  0  0  0  0  0
    6.0648   -0.8905   -1.3920 C   0  0  0  0  0  0  0  0  0  0  0  0
   -4.9835    0.5472    2.4106 N   0  0  0  0  0  0  0  0  0  0  0  0
   -1.1870    0.2900   -0.7743 N   0  0  0  0  0  0  0  0  0  0  0  0
   -6.5724    2.2693    1.9831 O   0  0  0  0  0  0  0  0  0  0  0  0
    6.7240    0.2324   -1.0351 O   0  0  0  0  0  0  0  0  0  0  0  0
  1 19  1  0
  2 19  1  0
  3 21  1  0
  4 23  1  0
  5  6  1  0
  5  7  3  0
  6 13  3  0
  7 14  1  0
  8  9  2  0
  8 10  1  0
  9 16  1  0
 10 17  2  0
 11 12  1  0
 11 15  1  0
 12 18  1  0
 13 19  1  0
 14 21  1  0
 15 16  2  0
 15 17  1  0
 16 20  1  0
 17 21  1  0
 18 20  2  0
 18 22  1  0
 19 23  1  0
M  END
>  <InChI>  (37) 
InChI=1S/C19H22N2O2/c1-19(2,23-4)13-6-5-7-14-21(3)17-10-8-9-16-15(17)11-12-18(22)20-16/h8-10H,11-12,14H2,1-4H3,(H,20,22)

>  <Activity>  (37) 
No data

$$$$
P23316_37
     RDKit          3D

 21 22  0  0  1  0  0  0  0  0999 V2000
    6.6185    3.3391   -0.8281 C   0  0  0  0  0  0  0  0  0  0  0  0
    5.6379    3.9204   -3.0582 C   0  0  0  0  0  0  0  0  0  0  0  0
    6.1314    1.5537   -2.4190 C   0  0  0  0  0  0  0  0  0  0  0  0
    1.8350    2.5854   -0.3444 C   0  0  0  0  0  0  0  0  0  0  0  0
    3.2961    2.7335   -0.9261 C   0  0  0  0  0  0  0  0  0  0  0  0
    1.2727    1.5075   -0.3564 C   0  0  0  0  0  0  0  0  0  0  0  0
   -1.1206   -3.3939   -0.1414 C   0  0  0  0  0  0  0  0  0  0  0  0
   -0.6137   -2.1189   -0.2161 C   0  0  0  0  0  0  0  0  0  0  0  0
   -2.3497   -3.6848    0.4029 C   0  0  0  0  0  0  0  0  0  0  0  0
   -3.3654   -0.2504    1.3600 C   0  0  0  0  0  0  0  0  0  0  0  0
   -4.5728   -0.6022    1.9022 C   0  0  0  0  0  0  0  0  0  0  0  0
    4.2788    2.8262   -1.3348 C   0  0  0  0  0  0  0  0  0  0  0  0
    0.4975    0.4089   -0.2865 C   0  0  0  0  0  0  0  0  0  0  0  0
   -2.5902   -1.3143    0.8334 C   0  0  0  0  0  0  0  0  0  0  0  0
   -1.3637   -1.0973    0.2797 C   0  0  0  0  0  0  0  0  0  0  0  0
   -3.1108   -2.6113    0.9122 C   0  0  0  0  0  0  0  0  0  0  0  0
   -4.9979   -1.8715    1.9354 C   0  0  0  0  0  0  0  0  0  0  0  0
    5.6762    2.9450   -1.9194 C   0  0  0  0  0  0  0  0  0  0  0  0
   -0.7992    0.2398    0.2073 N   0  0  0  0  0  0  0  0  0  0  0  0
   -6.0926   -2.2372    2.4154 O   0  0  0  0  0  0  0  0  0  0  0  0
   -4.2676   -2.8780    1.4388 O   0  0  0  0  0  0  0  0  0  0  0  0
  1 18  1  0
  2 18  1  0
  3 18  1  0
  4  5  1  0
  4  6  2  0
  5 12  3  0
  6 13  1  0
  7  8  2  0
  7  9  1  0
  8 15  1  0
  9 16  2  0
 10 11  2  0
 10 14  1  0
 11 17  1  0
 12 18  1  0
 13 19  1  0
 14 15  2  0
 14 16  1  0
 15 19  1  0
 16 21  1  0
 17 20  2  0
 17 21  1  0
M  END
>  <InChI>  (38) 
InChI=1S/C18H19NO2/c1-18(2,3)12-5-4-6-13-19-15-8-7-9-16-14(15)10-11-17(20)21-16/h4,6-11,19H,13H2,1-3H3/b6-4+

>  <Activity>  (38) 
No data

$$$$
P23316_38
     RDKit          3D

 42 45  0  0  1  0  0  0  0  0999 V2000
    7.4758    3.0989   -2.2080 C   0  0  0  0  0  0  0  0  0  0  0  0
    4.8775   -4.3137   -0.6999 C   0  0  0  0  0  0  0  0  0  0  0  0
    6.8391    3.7400   -1.1942 C   0  0  0  0  0  0  0  0  0  0  0  0
    7.2720    1.7597   -2.5094 C   0  0  0  0  0  0  0  0  0  0  0  0
    4.3037   -4.6865    0.5138 C   0  0  0  0  0  0  0  0  0  0  0  0
    4.1919   -3.3999   -1.4595 C   0  0  0  0  0  0  0  0  0  0  0  0
    5.9358    3.0011   -0.4233 C   0  0  0  0  0  0  0  0  0  0  0  0
    6.3646    1.0627   -1.7166 C   0  0  0  0  0  0  0  0  0  0  0  0
    3.1048   -4.1788    0.9581 C   0  0  0  0  0  0  0  0  0  0  0  0
    2.9815   -2.8817   -1.0203 C   0  0  0  0  0  0  0  0  0  0  0  0
   -4.3825    3.0378   -2.0853 C   0  0  0  0  0  0  0  0  0  0  0  0
   -4.1790    1.7486   -1.6295 C   0  0  0  0  0  0  0  0  0  0  0  0
    4.7565    0.9208    0.1382 C   0  0  0  0  0  0  0  0  0  0  0  0
    1.1484   -2.7207    0.6564 C   0  0  0  0  0  0  0  0  0  0  0  0
    5.7065    1.6784   -0.6874 C   0  0  0  0  0  0  0  0  0  0  0  0
    2.4114   -3.2490    0.1803 C   0  0  0  0  0  0  0  0  0  0  0  0
    3.3799    1.0469   -0.4839 C   0  0  0  0  0  0  0  0  0  0  0  0
    0.8370   -1.4493    0.4381 C   0  0  0  0  0  0  0  0  0  0  0  0
   -5.2446    3.8460   -1.3942 C   0  0  0  0  0  0  0  0  0  0  0  0
   -2.3842   -1.6642    2.1061 C   0  0  0  0  0  0  0  0  0  0  0  0
   -2.9339   -1.9797   -0.3325 C   0  0  1  0  0  0  0  0  0  0  0  0
   -3.6831   -0.8204   -1.3134 C   0  0  2  0  0  0  0  0  0  0  0  0
   -3.6659   -1.3910    1.1170 C   0  0  2  0  0  0  0  0  0  0  0  0
    2.3902    0.2675    0.3457 C   0  0  0  0  0  0  0  0  0  0  0  0
   -0.4223   -0.8725    0.8979 C   0  0  0  0  0  0  0  0  0  0  0  0
   -4.6025   -0.1655   -0.0038 C   0  0  2  0  0  0  0  0  0  0  0  0
   -2.5334   -0.7469    3.2428 C   0  0  0  0  0  0  0  0  0  0  0  0
   -5.5967    2.0255    0.1007 C   0  0  0  0  0  0  0  0  0  0  0  0
    3.0167    2.4519   -0.5030 N   0  0  0  0  0  0  0  0  0  0  0  0
    1.7748   -0.6730   -0.2619 N   0  0  0  0  0  0  0  0  0  0  0  0
   -5.8347    3.3173   -0.3107 N   0  0  0  0  0  0  0  0  0  0  0  0
   -1.2056   -1.5863    1.4963 N   0  0  0  0  0  0  0  0  0  0  0  0
   -4.7489    1.2470   -0.5889 N   0  0  0  0  0  0  0  0  0  0  0  0
   -5.5126    5.1698   -1.7850 O   0  0  0  0  0  0  0  0  0  0  0  0
   -3.8948   -3.1156   -0.4265 O   0  0  0  0  0  0  0  0  0  0  0  0
   -4.8178   -1.5973   -1.8790 O   0  0  0  0  0  0  0  0  0  0  0  0
    2.2369    0.6304    1.6682 O   0  0  0  0  0  0  0  0  0  0  0  0
   -0.6856    0.4566    0.6424 O   0  0  0  0  0  0  0  0  0  0  0  0
   -1.5706    0.0037    3.5283 O   0  0  0  0  0  0  0  0  0  0  0  0
   -3.6658   -0.6414    4.0356 O   0  0  0  0  0  0  0  0  0  0  0  0
   -6.1811    1.5909    1.1236 O   0  0  0  0  0  0  0  0  0  0  0  0
   -3.2598    0.0318    0.7725 O   0  0  0  0  0  0  0  0  0  0  0  0
  1  3  2  0
  1  4  1  0
  2  5  2  0
  2  6  1  0
  3  7  1  0
  4  8  2  0
  5  9  1  0
  6 10  2  0
  7 15  2  0
  8 15  1  0
  9 16  2  0
 10 16  1  0
 11 12  2  0
 11 19  1  0
 12 33  1  0
 13 15  1  0
 13 17  1  0
 14 16  1  0
 14 18  2  0
 17 24  1  0
 17 29  1  0
 18 25  1  0
 18 30  1  0
 19 31  2  0
 19 34  1  0
 23 20  1  1
 20 27  1  0
 20 32  1  0
 21 22  1  0
 21 23  1  0
 21 35  1  6
 22 26  1  0
 22 36  1  6
 23 42  1  0
 24 30  2  0
 24 37  1  0
 25 32  2  0
 25 38  1  0
 26 33  1  6
 26 42  1  0
 27 39  2  0
 27 40  1  0
 28 31  1  0
 28 33  1  0
 28 41  2  0
M  END
>  <InChI>  (39) 
InChI=1S/C28H29N5O9/c29-17(13-15-7-3-1-4-8-15)24(37)30-18(14-16-9-5-2-6-10-16)25(38)32-20(27(39)40)23-21(35)22(36)26(42-23)33-12-11-19(34)31-28(33)41/h1-12,14,17,20-23,26,35-36H,13,29H2,(H,30,37)(H,32,38)(H,39,40)(H,31,34,41)/b18-14-/t17?,20?,21-,22+,23+,26+/m0/s1

>  <Activity>  (39) 
Inactive

$$$$
P23316_39
     RDKit          3D

 28 29  0  0  1  0  0  0  0  0999 V2000
    4.7063    2.7317   -3.1927 C   0  0  0  0  0  0  0  0  0  0  0  0
    4.1578    3.6393   -2.0863 C   0  0  0  0  0  0  0  0  0  0  0  0
    3.2136    2.8091   -1.2467 C   0  0  0  0  0  0  0  0  0  0  0  0
    3.9654    1.6407   -0.6489 C   0  0  0  0  0  0  0  0  0  0  0  0
   -2.8309    1.4326    3.7158 C   0  0  0  0  0  0  0  0  0  0  0  0
   -2.2745    0.2332    3.2395 C   0  0  0  0  0  0  0  0  0  0  0  0
    3.0232    0.8084    0.1917 C   0  0  0  0  0  0  0  0  0  0  0  0
   -3.0231    2.4522    2.8296 C   0  0  0  0  0  0  0  0  0  0  0  0
    0.6626   -1.5693   -1.4159 C   0  0  0  0  0  0  0  0  0  0  0  0
   -1.7403   -1.5738   -1.0467 C   0  0  1  0  0  0  0  0  0  0  0  0
   -2.6576   -1.5940    0.3807 C   0  0  2  0  0  0  0  0  0  0  0  0
   -0.3450   -2.0716   -0.1617 C   0  0  2  0  0  0  0  0  0  0  0  0
    1.8901    0.2664   -0.5976 C   0  0  0  0  0  0  0  0  0  0  0  0
   -1.3456   -1.2033    1.4542 C   0  0  2  0  0  0  0  0  0  0  0  0
    1.0279   -2.8244   -2.0767 C   0  0  0  0  0  0  0  0  0  0  0  0
   -2.1573    1.1448    1.1187 C   0  0  0  0  0  0  0  0  0  0  0  0
    3.7394   -0.2198    0.9050 N   0  0  0  0  0  0  0  0  0  0  0  0
   -2.6854    2.2972    1.5463 N   0  0  0  0  0  0  0  0  0  0  0  0
    1.7663   -1.0123   -0.6480 N   0  0  0  0  0  0  0  0  0  0  0  0
   -1.9664    0.1661    1.9394 N   0  0  0  0  0  0  0  0  0  0  0  0
   -3.5825    3.6667    3.2933 O   0  0  0  0  0  0  0  0  0  0  0  0
   -2.1099   -2.9276   -1.5842 O   0  0  0  0  0  0  0  0  0  0  0  0
   -2.4775   -3.0494    0.7265 O   0  0  0  0  0  0  0  0  0  0  0  0
    1.0443    1.1594   -1.2248 O   0  0  0  0  0  0  0  0  0  0  0  0
    2.1785   -3.2927   -1.9243 O   0  0  0  0  0  0  0  0  0  0  0  0
    0.1073   -3.4926   -2.8674 O   0  0  0  0  0  0  0  0  0  0  0  0
   -1.8412    1.0030   -0.0875 O   0  0  0  0  0  0  0  0  0  0  0  0
   -0.4456   -0.6199    0.3791 O   0  0  0  0  0  0  0  0  0  0  0  0
  1  2  1  0
  2  3  1  0
  3  4  1  0
  4  7  1  0
  5  6  2  0
  5  8  1  0
  6 20  1  0
  7 13  1  0
  7 17  1  0
  8 18  2  0
  8 21  1  0
 12  9  1  6
  9 15  1  0
  9 19  1  0
 10 11  1  0
 10 12  1  0
 10 22  1  6
 11 14  1  0
 11 23  1  1
 12 28  1  0
 13 19  2  3
 13 24  1  0
 14 20  1  1
 14 28  1  0
 15 25  2  0
 15 26  1  0
 16 18  1  0
 16 20  1  0
 16 27  2  0
M  END
>  <InChI>  (40) 
InChI=1S/C16H24N4O8/c1-2-3-4-7(17)13(24)19-9(15(25)26)12-10(22)11(23)14(28-12)20-6-5-8(21)18-16(20)27/h5-7,9-12,14,22-23H,2-4,17H2,1H3,(H,19,24)(H,25,26)(H,18,21,27)/t7?,9?,10-,11+,12+,14+/m0/s1

>  <Activity>  (40) 
No data

$$$$
P23316_40
     RDKit          3D

 24 25  0  0  1  0  0  0  0  0999 V2000
   -0.6998   -3.5794   -2.1035 C   0  0  0  0  0  0  0  0  0  0  0  0
    6.9876    1.1205   -1.1656 C   0  0  0  0  0  0  0  0  0  0  0  0
    7.1399   -1.0018    0.1617 C   0  0  0  0  0  0  0  0  0  0  0  0
    7.0246    1.1507    1.2961 C   0  0  0  0  0  0  0  0  0  0  0  0
   -0.8425   -2.8058   -0.8007 C   0  0  0  0  0  0  0  0  0  0  0  0
    2.4520   -0.1139    0.0047 C   0  0  0  0  0  0  0  0  0  0  0  0
    3.8926    0.0844    0.0416 C   0  0  0  0  0  0  0  0  0  0  0  0
    1.8095   -0.5334    1.0524 C   0  0  0  0  0  0  0  0  0  0  0  0
   -1.7965    2.8631    0.4156 C   0  0  0  0  0  0  0  0  0  0  0  0
   -3.1687    2.6270    0.3707 C   0  0  0  0  0  0  0  0  0  0  0  0
   -0.9262    1.8023    0.3278 C   0  0  0  0  0  0  0  0  0  0  0  0
   -3.1964   -1.0968    0.0142 C   0  0  0  0  0  0  0  0  0  0  0  0
   -4.6529   -1.2847   -0.0219 C   0  0  0  0  0  0  0  0  0  0  0  0
    5.0877    0.2309    0.0711 C   0  0  0  0  0  0  0  0  0  0  0  0
   -0.3719   -1.4068   -1.0530 C   0  0  0  0  0  0  0  0  0  0  0  0
    0.3914   -0.7932    1.2289 C   0  0  0  0  0  0  0  0  0  0  0  0
   -2.7650    0.3075    0.1547 C   0  0  0  0  0  0  0  0  0  0  0  0
   -3.6518    1.3382    0.2392 C   0  0  0  0  0  0  0  0  0  0  0  0
   -1.3787    0.5216    0.1976 C   0  0  0  0  0  0  0  0  0  0  0  0
   -5.4992   -0.0967    0.0783 C   0  0  0  0  0  0  0  0  0  0  0  0
    6.5635    0.3944    0.0899 C   0  0  0  0  0  0  0  0  0  0  0  0
   -5.0636    1.1026    0.1973 N   0  0  0  0  0  0  0  0  0  0  0  0
   -0.4555   -0.5659    0.1056 N   0  0  0  0  0  0  0  0  0  0  0  0
   -6.8799   -0.2649    0.0436 O   0  0  0  0  0  0  0  0  0  0  0  0
  1  5  1  0
  2 21  1  0
  3 21  1  0
  4 21  1  0
  5 15  1  0
  6  7  1  0
  6  8  2  0
  7 14  3  0
  8 16  1  0
  9 10  2  0
  9 11  1  0
 10 18  1  0
 11 19  2  0
 12 13  1  0
 12 17  1  0
 13 20  1  0
 14 21  1  0
 15 23  1  0
 16 23  1  0
 17 18  2  0
 17 19  1  0
 18 22  1  0
 19 23  1  0
 20 22  2  0
 20 24  1  0
M  END
>  <InChI>  (41) 
InChI=1S/C21H28N2O/c1-5-15-23(16-8-6-7-14-21(2,3)4)19-11-9-10-18-17(19)12-13-20(24)22-18/h6,8-11H,5,12-13,15-16H2,1-4H3,(H,22,24)/b8-6+

>  <Activity>  (41) 
No data

$$$$
P23316_41
     RDKit          2D

 35 36  0  0  1  0  0  0  0  0999 V2000
    1.5000    0.0000    0.0000 C   0  0  0  0  0  0  0  0  0  0  0  0
    1.5000   -2.5981    0.0000 C   0  0  0  0  0  0  0  0  0  0  0  0
    9.2553   11.1379    0.0000 C   0  0  0  0  0  0  0  0  0  0  0  0
    0.7500   -1.2990    0.0000 C   0  0  0  0  0  0  0  0  0  0  0  0
    7.8850   10.5278    0.0000 C   0  0  0  0  0  0  0  0  0  0  0  0
    6.3579    8.4259    0.0000 C   0  0  0  0  0  0  0  0  0  0  0  0
    4.6740    4.8322    0.0000 C   0  0  0  0  0  0  0  0  0  0  0  0
    7.7282    9.0360    0.0000 C   0  0  0  0  0  0  0  0  0  0  0  0
    2.0046    4.9721    0.0000 C   0  0  0  0  0  0  0  0  0  0  0  0
    0.8899    3.9684    0.0000 C   0  0  0  0  0  0  0  0  0  0  0  0
    3.3037    4.2221    0.0000 C   0  0  0  0  0  0  0  0  0  0  0  0
   -0.7500   -1.2990    0.0000 C   0  0  0  0  0  0  0  0  0  0  0  0
    6.2011    6.9341    0.0000 C   0  0  0  0  0  0  0  0  0  0  0  0
    1.5000    2.5981    0.0000 C   0  0  0  0  0  0  0  0  0  0  0  0
    5.8875    3.9505    0.0000 C   0  0  0  0  0  0  0  0  0  0  0  0
   10.7824   13.2397    0.0000 C   0  0  0  0  0  0  0  0  0  0  0  0
   -0.7500    1.2990    0.0000 C   0  0  0  0  0  0  0  0  0  0  0  0
    5.1443    9.3075    0.0000 N   0  0  0  0  0  0  0  0  0  0  0  0
   10.9392   14.7315    0.0000 N   0  0  0  0  0  0  0  0  0  0  0  0
    4.8308    6.3240    0.0000 N   0  0  0  0  0  0  0  0  0  0  0  0
   -1.5000    0.0000    0.0000 N   0  0  0  0  0  0  0  0  0  0  0  0
    0.7500    1.2990    0.0000 N   0  0  0  0  0  0  0  0  0  0  0  0
    0.7500   -3.8971    0.0000 O   0  0  0  0  0  0  0  0  0  0  0  0
    6.6715   11.4094    0.0000 O   0  0  0  0  0  0  0  0  0  0  0  0
    8.9417    8.1543    0.0000 O   0  0  0  0  0  0  0  0  0  0  0  0
    1.8478    6.4639    0.0000 O   0  0  0  0  0  0  0  0  0  0  0  0
   -0.5773    4.2803    0.0000 O   0  0  0  0  0  0  0  0  0  0  0  0
   -1.5000   -2.5981    0.0000 O   0  0  0  0  0  0  0  0  0  0  0  0
    7.4146    6.0524    0.0000 O   0  0  0  0  0  0  0  0  0  0  0  0
    5.7307    2.4587    0.0000 O   0  0  0  0  0  0  0  0  0  0  0  0
    7.2578    4.5606    0.0000 O   0  0  0  0  0  0  0  0  0  0  0  0
   11.9959   12.3581    0.0000 O   0  0  0  0  0  0  0  0  0  0  0  0
   -1.5000    2.5981    0.0000 O   0  0  0  0  0  0  0  0  0  0  0  0
    9.4121   12.6296    0.0000 O   0  0  0  0  0  0  0  0  0  0  0  0
    2.9918    2.7549    0.0000 O   0  0  0  0  0  0  0  0  0  0  0  0
  1  4  2  0
  1 22  1  0
  2  4  1  0
  2 23  1  0
  3  5  1  0
  3 34  1  0
  4 12  1  0
  5  8  1  0
  5 24  1  1
  6  8  1  0
  6 13  1  0
  6 18  1  1
  7 11  1  0
  7 15  1  0
  7 20  1  6
  8 25  1  1
  9 10  1  0
  9 11  1  0
  9 26  1  6
 10 14  1  0
 10 27  1  6
 11 35  1  1
 12 21  2  0
 12 28  1  0
 13 20  2  3
 13 29  1  0
 14 22  1  1
 14 35  1  0
 15 30  2  0
 15 31  1  0
 16 19  2  0
 16 32  1  0
 16 34  1  0
 17 21  1  0
 17 22  1  0
 17 33  2  0
M  END
>  <InChI>  (42) 
InChI=1S/C17H25N5O13/c18-6(8(25)5(24)3-34-16(19)32)13(29)20-7(15(30)31)11-9(26)10(27)14(35-11)22-1-4(2-23)12(28)21-17(22)33/h1,5-11,14,23-27H,2-3,18H2,(H2,19,32)(H,20,29)(H,30,31)(H,21,28,33)/t5-,6-,7-,8+,9-,10+,11+,14+/m0/s1

>  <Activity>  (42) 
No data

$$$$
P23316_42
     RDKit          3D

 21 22  0  0  1  0  0  0  0  0999 V2000
    3.9280   -4.3471   -0.0853 C   0  0  0  0  0  0  0  0  0  0  0  0
    4.7952   -2.5479   -1.5731 C   0  0  0  0  0  0  0  0  0  0  0  0
    4.6540   -2.2522    0.9136 C   0  0  0  0  0  0  0  0  0  0  0  0
    0.5126   -2.1098    0.8882 C   0  0  0  0  0  0  0  0  0  0  0  0
    1.9328   -2.6398    0.9371 C   0  0  0  0  0  0  0  0  0  0  0  0
   -0.2285   -2.7820   -0.2215 C   0  0  0  0  0  0  0  0  0  0  0  0
   -0.8740    1.1911    2.3029 C   0  0  0  0  0  0  0  0  0  0  0  0
   -1.0991    0.0759    1.5452 C   0  0  0  0  0  0  0  0  0  0  0  0
   -1.0939    2.4202    1.7355 C   0  0  0  0  0  0  0  0  0  0  0  0
   -2.1845    1.5308   -1.5978 C   0  0  0  0  0  0  0  0  0  0  0  0
   -2.3820    2.8073   -2.0944 C   0  0  0  0  0  0  0  0  0  0  0  0
    2.5908   -2.3322   -0.4030 C   0  0  0  0  0  0  0  0  0  0  0  0
   -1.6391   -2.3096   -0.3315 C   0  0  0  0  0  0  0  0  0  0  0  0
   -1.7486    1.4306   -0.2996 C   0  0  0  0  0  0  0  0  0  0  0  0
   -1.5362    0.1506    0.2413 C   0  0  0  0  0  0  0  0  0  0  0  0
   -1.5330    2.5768    0.4320 C   0  0  0  0  0  0  0  0  0  0  0  0
   -2.1676    3.9443   -1.3676 C   0  0  0  0  0  0  0  0  0  0  0  0
    4.0058   -2.8697   -0.3315 C   0  0  0  0  0  0  0  0  0  0  0  0
   -1.8043   -0.9454   -0.5880 N   0  0  0  0  0  0  0  0  0  0  0  0
   -1.7395    3.8087   -0.0951 N   0  0  0  0  0  0  0  0  0  0  0  0
   -2.3888    5.1994   -1.9366 O   0  0  0  0  0  0  0  0  0  0  0  0
  1 18  1  0
  2 18  1  0
  3 18  1  0
  4  5  1  0
  4  6  1  0
  5 12  1  0
  6 13  1  0
  7  8  2  0
  7  9  1  0
  8 15  1  0
  9 16  2  0
 10 11  2  0
 10 14  1  0
 11 17  1  0
 12 18  1  0
 13 19  1  0
 14 15  2  0
 14 16  1  0
 15 19  1  0
 16 20  1  0
 17 20  2  0
 17 21  1  0
M  END
>  <InChI>  (43) 
InChI=1S/C18H26N2O/c1-18(2,3)12-5-4-6-13-19-15-8-7-9-16-14(15)10-11-17(21)20-16/h7-11,19H,4-6,12-13H2,1-3H3,(H,20,21)

>  <Activity>  (43) 
No data

$$$$
P23316_43
     RDKit          3D

 28 30  0  0  1  0  0  0  0  0999 V2000
    6.5211   -0.4279   -0.3302 C   0  0  0  0  0  0  0  0  0  0  0  0
    5.9841   -1.5098    1.8604 C   0  0  0  0  0  0  0  0  0  0  0  0
    5.2006   -2.5290   -0.1973 C   0  0  0  0  0  0  0  0  0  0  0  0
   -2.7579    5.7699   -0.4152 C   0  0  0  0  0  0  0  0  0  0  0  0
    2.0799    1.0226    0.9478 C   0  0  0  0  0  0  0  0  0  0  0  0
   -3.3651    4.7251   -1.0527 C   0  0  0  0  0  0  0  0  0  0  0  0
   -1.8883    5.4450    0.6342 C   0  0  0  0  0  0  0  0  0  0  0  0
    3.2304    0.2723    0.7946 C   0  0  0  0  0  0  0  0  0  0  0  0
    1.0355    1.3485    0.4701 C   0  0  0  0  0  0  0  0  0  0  0  0
   -3.4082   -1.5031   -2.0226 C   0  0  0  0  0  0  0  0  0  0  0  0
   -3.1714    3.3780   -0.7250 C   0  0  0  0  0  0  0  0  0  0  0  0
   -1.6927    4.1394    0.9586 C   0  0  0  0  0  0  0  0  0  0  0  0
   -2.9026   -2.7181   -1.6629 C   0  0  0  0  0  0  0  0  0  0  0  0
   -2.8828   -0.3428   -1.5440 C   0  0  0  0  0  0  0  0  0  0  0  0
   -0.1427   -1.5789    0.6130 C   0  0  0  0  0  0  0  0  0  0  0  0
    0.3286   -2.8907    1.0258 C   0  0  0  0  0  0  0  0  0  0  0  0
    4.2322   -0.3944    0.6425 C   0  0  0  0  0  0  0  0  0  0  0  0
    0.0406    1.3339   -0.5498 C   0  0  0  0  0  0  0  0  0  0  0  0
   -2.0405    1.6954    0.7665 C   0  0  0  0  0  0  0  0  0  0  0  0
   -2.2975    3.0764    0.3268 C   0  0  0  0  0  0  0  0  0  0  0  0
   -1.2712   -1.5722   -0.2938 C   0  0  0  0  0  0  0  0  0  0  0  0
   -1.8259   -2.7210   -0.7912 C   0  0  0  0  0  0  0  0  0  0  0  0
   -1.7974   -0.3174   -0.6612 C   0  0  0  0  0  0  0  0  0  0  0  0
   -0.3293   -4.0657    0.4421 C   0  0  0  0  0  0  0  0  0  0  0  0
    5.4811   -1.1960    0.4459 C   0  0  0  0  0  0  0  0  0  0  0  0
   -1.2875   -3.9924   -0.3677 N   0  0  0  0  0  0  0  0  0  0  0  0
   -1.2607    0.8970   -0.1619 N   0  0  0  0  0  0  0  0  0  0  0  0
    0.1873   -5.3442    0.8472 O   0  0  0  0  0  0  0  0  0  0  0  0
  1 25  1  0
  2 25  1  0
  3 25  1  0
  4  6  2  0
  4  7  1  0
  5  8  1  0
  5  9  2  0
  6 11  1  0
  7 12  2  0
  8 17  3  0
  9 18  1  0
 10 13  2  0
 10 14  1  0
 11 20  2  0
 12 20  1  0
 13 22  1  0
 14 23  2  0
 15 16  1  0
 15 21  1  0
 16 24  1  0
 17 25  1  0
 18 27  1  0
 19 20  1  0
 19 27  1  0
 21 22  2  0
 21 23  1  0
 22 26  1  0
 23 27  1  0
 24 26  2  0
 24 28  1  0
M  END
>  <InChI>  (44) 
InChI=1S/C25H28N2O/c1-25(2,3)17-8-5-9-18-27(19-20-11-6-4-7-12-20)23-14-10-13-22-21(23)15-16-24(28)26-22/h4-7,9-14H,15-16,18-19H2,1-3H3,(H,26,28)/b9-5+

>  <Activity>  (44) 
No data

$$$$
P23316_44
     RDKit          3D

 28 29  0  0  1  0  0  0  0  0999 V2000
    3.4076    3.1034   -0.4224 C   0  0  0  0  0  0  0  0  0  0  0  0
    3.7942    1.7199   -0.9668 C   0  0  0  0  0  0  0  0  0  0  0  0
    4.7768    1.1670    0.0254 C   0  0  0  0  0  0  0  0  0  0  0  0
    5.3034   -0.1766   -0.2913 C   0  0  0  0  0  0  0  0  0  0  0  0
   -4.5631   -0.5898   -1.1912 C   0  0  0  0  0  0  0  0  0  0  0  0
   -3.1770   -0.3971   -1.0049 C   0  0  0  0  0  0  0  0  0  0  0  0
    4.3243   -1.2857   -0.3971 C   0  0  0  0  0  0  0  0  0  0  0  0
   -5.4418    0.3716   -0.7845 C   0  0  0  0  0  0  0  0  0  0  0  0
    1.0672   -1.4759    0.6061 C   0  0  0  0  0  0  0  0  0  0  0  0
    0.4464    0.7368    1.3771 C   0  0  1  0  0  0  0  0  0  0  0  0
   -1.2184    0.5640    1.4331 C   0  0  2  0  0  0  0  0  0  0  0  0
    0.6808   -0.0658   -0.0996 C   0  0  2  0  0  0  0  0  0  0  0  0
    0.5097   -2.5702   -0.1807 C   0  0  0  0  0  0  0  0  0  0  0  0
    3.5373   -1.5645    0.7983 C   0  0  0  0  0  0  0  0  0  0  0  0
   -1.2718    0.9806   -0.2126 C   0  0  2  0  0  0  0  0  0  0  0  0
   -3.5794    1.6224   -0.0538 C   0  0  0  0  0  0  0  0  0  0  0  0
    3.6477   -1.2177   -1.6320 N   0  0  0  0  0  0  0  0  0  0  0  0
   -0.3331   -3.4544    0.2425 N   0  0  0  0  0  0  0  0  0  0  0  0
   -4.9408    1.4729   -0.2175 N   0  0  0  0  0  0  0  0  0  0  0  0
    2.3312   -1.5989    1.0226 N   0  0  0  0  0  0  0  0  0  0  0  0
   -2.7302    0.7032   -0.4420 N   0  0  0  0  0  0  0  0  0  0  0  0
   -6.8302    0.2549   -0.9340 O   0  0  0  0  0  0  0  0  0  0  0  0
    0.5533    2.0755    0.7197 O   0  0  0  0  0  0  0  0  0  0  0  0
   -1.4165    1.8971    2.0474 O   0  0  0  0  0  0  0  0  0  0  0  0
    0.8918   -2.7118   -1.5080 O   0  0  0  0  0  0  0  0  0  0  0  0
    4.3309   -1.8591    1.9442 O   0  0  0  0  0  0  0  0  0  0  0  0
   -3.3601    2.7153    0.4900 O   0  0  0  0  0  0  0  0  0  0  0  0
   -0.7400   -0.4168   -0.3681 O   0  0  0  0  0  0  0  0  0  0  0  0
  1  2  1  0
  2  3  1  0
  3  4  1  0
  4  7  1  0
  5  6  2  0
  5  8  1  0
  6 21  1  0
  7 14  1  0
  7 17  1  0
  8 19  2  0
  8 22  1  0
 12  9  1  1
  9 13  1  0
  9 20  1  0
 10 11  1  0
 10 12  1  0
 10 23  1  6
 11 15  1  0
 11 24  1  1
 12 28  1  0
 13 18  2  0
 13 25  1  0
 14 20  2  3
 14 26  1  0
 15 21  1  6
 15 28  1  0
 16 19  1  0
 16 21  1  0
 16 27  2  0
M  END
>  <InChI>  (45) 
InChI=1S/C16H25N5O7/c1-2-3-4-7(17)14(26)20-9(13(18)25)12-10(23)11(24)15(28-12)21-6-5-8(22)19-16(21)27/h5-7,9-12,15,23-24H,2-4,17H2,1H3,(H2,18,25)(H,20,26)(H,19,22,27)/t7?,9?,10-,11+,12+,15+/m0/s1

>  <Activity>  (45) 
Inactive

$$$$
P23316_45
     RDKit          3D

 56 57  0  0  1  0  0  0  0  0999 V2000
   12.4133   -5.9176   -0.9225 C   0  0  0  0  0  0  0  0  0  0  0  0
   -4.0514    9.6049   -0.2623 C   0  0  0  0  0  0  0  0  0  0  0  0
   11.4597   -6.6434   -1.8452 C   0  0  0  0  0  0  0  0  0  0  0  0
   -3.3444    8.4370   -0.8950 C   0  0  0  0  0  0  0  0  0  0  0  0
   10.3551   -7.2278   -0.9984 C   0  0  0  0  0  0  0  0  0  0  0  0
   -1.9018    8.4377   -0.4836 C   0  0  0  0  0  0  0  0  0  0  0  0
    9.6659   -6.0848   -0.2912 C   0  0  0  0  0  0  0  0  0  0  0  0
   -1.7851    8.3269    1.0208 C   0  0  0  0  0  0  0  0  0  0  0  0
    8.5440   -6.6604    0.5711 C   0  0  0  0  0  0  0  0  0  0  0  0
   -2.4418    7.0275    1.4351 C   0  0  0  0  0  0  0  0  0  0  0  0
    7.8024   -5.5966    1.3125 C   0  0  0  0  0  0  0  0  0  0  0  0
   -1.7473    5.8544    0.7716 C   0  0  0  0  0  0  0  0  0  0  0  0
    3.9292   -2.3240   -1.3537 C   0  0  0  0  0  0  0  0  0  0  0  0
    0.6995    1.9898    1.5222 C   0  0  0  0  0  0  0  0  0  0  0  0
    3.4292   -3.4451   -0.6320 C   0  0  0  0  0  0  0  0  0  0  0  0
    1.6586    2.4336    0.4460 C   0  0  0  0  0  0  0  0  0  0  0  0
    4.5929   -1.1834   -0.9006 C   0  0  0  0  0  0  0  0  0  0  0  0
   -0.0926    0.8360    1.0262 C   0  0  0  0  0  0  0  0  0  0  0  0
    7.1742   -4.6088    0.3394 C   0  0  0  0  0  0  0  0  0  0  0  0
   -0.3102    5.8703    1.2130 C   0  0  0  0  0  0  0  0  0  0  0  0
   -7.9974   -1.6215    0.4572 C   0  0  0  0  0  0  0  0  0  0  0  0
    4.4777   -4.2345    0.0445 C   0  0  0  0  0  0  0  0  0  0  0  0
    0.7318    2.8558   -0.7131 C   0  0  0  0  0  0  0  0  0  0  0  0
   -6.7927   -1.0659    0.1372 C   0  0  0  0  0  0  0  0  0  0  0  0
    3.7062   -0.2143    0.0869 C   0  0  1  0  0  0  0  0  0  0  0  0
    0.9194   -0.4094    0.7486 C   0  0  1  0  0  0  0  0  0  0  0  0
    6.4627   -3.5928    1.1343 C   0  0  0  0  0  0  0  0  0  0  0  0
    0.4824    4.7639    0.6281 C   0  0  0  0  0  0  0  0  0  0  0  0
   -9.1338   -0.8790    0.2248 C   0  0  0  0  0  0  0  0  0  0  0  0
   -2.1854    0.0188    0.4645 C   0  0  1  0  0  0  0  0  0  0  0  0
   -3.2663    0.0418   -1.7073 C   0  0  1  0  0  0  0  0  0  0  0  0
   -4.9247    0.0547   -2.1319 C   0  0  2  0  0  0  0  0  0  0  0  0
   -3.6372   -0.6209   -0.1897 C   0  0  2  0  0  0  0  0  0  0  0  0
    2.5651    0.1057   -0.9883 C   0  0  0  0  0  0  0  0  0  0  0  0
   -0.2059   -1.4579    0.2435 C   0  0  0  0  0  0  0  0  0  0  0  0
   -5.3886    0.7109   -0.7122 C   0  0  0  0  0  0  0  0  0  0  0  0
   -2.5762   -0.3056    1.9732 C   0  0  0  0  0  0  0  0  0  0  0  0
   -7.7724    0.8724   -0.6109 C   0  0  0  0  0  0  0  0  0  0  0  0
    2.9338   -1.3759    0.7933 N   0  0  0  0  0  0  0  0  0  0  0  0
    5.2070   -3.4421    0.9746 N   0  0  0  0  0  0  0  0  0  0  0  0
   -0.0818    3.9234   -0.1632 N   0  0  0  0  0  0  0  0  0  0  0  0
    1.3409    0.0128   -0.6722 N   0  0  0  0  0  0  0  0  0  0  0  0
   -8.9723    0.3472   -0.3040 N   0  0  0  0  0  0  0  0  0  0  0  0
   -1.3785   -1.2481    0.1523 N   0  0  0  0  0  0  0  0  0  0  0  0
   -6.6603    0.1564   -0.3879 N   0  0  0  0  0  0  0  0  0  0  0  0
    7.1478   -2.8150    2.0398 O   0  0  0  0  0  0  0  0  0  0  0  0
    1.8199    4.6885    0.9701 O   0  0  0  0  0  0  0  0  0  0  0  0
  -10.4054   -1.3918    0.5315 O   0  0  0  0  0  0  0  0  0  0  0  0
   -2.9329   -1.2604   -2.3526 O   0  0  0  0  0  0  0  0  0  0  0  0
   -5.2370   -1.3629   -1.7062 O   0  0  0  0  0  0  0  0  0  0  0  0
    2.9510    0.4818   -2.2450 O   0  0  0  0  0  0  0  0  0  0  0  0
    0.3142   -2.7210   -0.1069 O   0  0  0  0  0  0  0  0  0  0  0  0
   -3.2686    0.6167    2.4797 O   0  0  0  0  0  0  0  0  0  0  0  0
   -2.2023   -1.4253    2.5998 O   0  0  0  0  0  0  0  0  0  0  0  0
   -7.6875    2.0498   -1.1137 O   0  0  0  0  0  0  0  0  0  0  0  0
   -4.4021    0.6175    0.1217 O   0  0  0  0  0  0  0  0  0  0  0  0
  1  3  1  0
  2  4  1  0
  3  5  1  0
  4  6  1  0
  5  7  1  0
  6  8  1  0
  7  9  1  0
  8 10  1  0
  9 11  1  0
 10 12  1  0
 11 19  1  0
 12 20  1  0
 13 15  1  0
 13 17  1  0
 14 16  1  0
 14 18  1  0
 15 22  1  0
 16 23  1  0
 17 25  1  0
 26 18  1  1
 19 27  1  0
 20 28  1  0
 21 24  2  0
 21 29  1  0
 22 40  1  0
 23 41  1  0
 24 45  1  0
 25 34  1  0
 25 39  1  1
 26 35  1  0
 26 42  1  0
 27 40  2  3
 27 46  1  0
 28 41  2  3
 28 47  1  0
 29 43  2  0
 29 48  1  0
 30 33  1  0
 30 37  1  0
 30 44  1  6
 31 32  1  0
 31 33  1  0
 31 49  1  6
 32 36  1  0
 32 50  1  1
 33 56  1  1
 34 42  2  3
 34 51  1  0
 35 44  2  3
 35 52  1  0
 36 45  1  0
 36 56  1  0
 37 53  2  0
 37 54  1  0
 38 43  1  0
 38 45  1  0
 38 55  2  0
M  END
>  <InChI>  (46) 
InChI=1S/C38H65N7O11/c1-3-5-7-9-11-19-27(46)40-22-15-13-17-25(39)34(51)42-26(18-14-16-23-41-28(47)20-12-10-8-6-4-2)35(52)44-30(37(53)54)33-31(49)32(50)36(56-33)45-24-21-29(48)43-38(45)55/h21,24-26,30-33,36,49-50H,3-20,22-23,39H2,1-2H3,(H,40,46)(H,41,47)(H,42,51)(H,44,52)(H,53,54)(H,43,48,55)/t25-,26-,30-,31-,32+,33+,36?/m0/s1

>  <Activity>  (46) 
No data

$$$$
P23316_46
     RDKit          3D

 29 30  0  0  1  0  0  0  0  0999 V2000
   -6.9835   -0.3767   -0.4089 C   0  0  0  0  0  0  0  0  0  0  0  0
   -3.3961    0.6079    4.0883 C   0  0  0  0  0  0  0  0  0  0  0  0
   -5.7532    0.2718   -1.0425 C   0  0  0  0  0  0  0  0  0  0  0  0
   -4.7500    0.6770    0.0184 C   0  0  0  0  0  0  0  0  0  0  0  0
   -4.2850   -0.5433    0.8098 C   0  0  0  0  0  0  0  0  0  0  0  0
    3.6575   -1.3643    1.7372 C   0  0  0  0  0  0  0  0  0  0  0  0
    2.6921   -0.7007    1.0029 C   0  0  0  0  0  0  0  0  0  0  0  0
   -3.3156   -0.1873    1.8221 C   0  0  0  0  0  0  0  0  0  0  0  0
    4.9758   -1.0727    1.5030 C   0  0  0  0  0  0  0  0  0  0  0  0
   -1.4277    0.7764   -0.8379 C   0  0  0  0  0  0  0  0  0  0  0  0
    0.4057    0.5612   -2.5398 C   0  0  1  0  0  0  0  0  0  0  0  0
    1.9856    0.1052   -2.1213 C   0  0  2  0  0  0  0  0  0  0  0  0
    0.1051    1.3741   -1.0524 C   0  0  2  0  0  0  0  0  0  0  0  0
   -2.0553    0.4327    1.5375 C   0  0  0  0  0  0  0  0  0  0  0  0
    1.9717    0.9975   -0.6950 C   0  0  2  0  0  0  0  0  0  0  0  0
   -1.5203   -0.4993   -1.5577 C   0  0  0  0  0  0  0  0  0  0  0  0
    4.2456    0.4917   -0.1443 C   0  0  0  0  0  0  0  0  0  0  0  0
   -3.6783   -0.4820    3.1477 N   0  0  0  0  0  0  0  0  0  0  0  0
    5.2516   -0.1394    0.5566 N   0  0  0  0  0  0  0  0  0  0  0  0
   -1.4529    0.7443    0.5384 N   0  0  0  0  0  0  0  0  0  0  0  0
    2.9743    0.1997    0.0932 N   0  0  0  0  0  0  0  0  0  0  0  0
    6.0320   -1.7076    2.1979 O   0  0  0  0  0  0  0  0  0  0  0  0
    0.6450    1.8555   -3.2252 O   0  0  0  0  0  0  0  0  0  0  0  0
    2.7837    1.0791   -2.8925 O   0  0  0  0  0  0  0  0  0  0  0  0
   -1.3501    0.7549    2.7369 O   0  0  0  0  0  0  0  0  0  0  0  0
   -1.4404   -1.6215   -1.0579 O   0  0  0  0  0  0  0  0  0  0  0  0
   -1.7193   -0.4058   -2.9392 O   0  0  0  0  0  0  0  0  0  0  0  0
    4.6778    1.3257   -0.9943 O   0  0  0  0  0  0  0  0  0  0  0  0
    0.7244    0.2197   -0.2807 O   0  0  0  0  0  0  0  0  0  0  0  0
  1  3  1  0
  2 18  1  0
  3  4  1  0
  4  5  1  0
  5  8  1  0
  6  7  2  0
  6  9  1  0
  7 21  1  0
  8 14  1  0
  8 18  1  0
  9 19  2  0
  9 22  1  0
 13 10  1  1
 10 16  1  0
 10 20  1  0
 11 12  1  0
 11 13  1  0
 11 23  1  6
 12 15  1  0
 12 24  1  6
 13 29  1  0
 14 20  2  3
 14 25  1  0
 15 21  1  1
 15 29  1  0
 16 26  2  0
 16 27  1  0
 17 19  1  0
 17 21  1  0
 17 28  2  0
M  END
>  <InChI>  (47) 
InChI=1S/C17H26N4O8/c1-3-4-5-8(18-2)14(25)20-10(16(26)27)13-11(23)12(24)15(29-13)21-7-6-9(22)19-17(21)28/h6-8,10-13,15,18,23-24H,3-5H2,1-2H3,(H,20,25)(H,26,27)(H,19,22,28)/t8?,10?,11-,12+,13+,15+/m0/s1

>  <Activity>  (47) 
Inactive

$$$$
P23316_47
     RDKit          3D

 30 31  0  0  1  0  0  0  0  0999 V2000
   -5.3092    4.5527    0.1579 C   0  0  0  0  0  0  0  0  0  0  0  0
   -3.8014    3.5497   -1.5336 C   0  0  0  0  0  0  0  0  0  0  0  0
    7.6890    1.6511   -1.1787 C   0  0  0  0  0  0  0  0  0  0  0  0
    6.7937    3.0594    0.5454 C   0  0  0  0  0  0  0  0  0  0  0  0
    6.1397    3.6899   -1.6286 C   0  0  0  0  0  0  0  0  0  0  0  0
    3.1595   -2.3668   -0.3214 C   0  0  0  0  0  0  0  0  0  0  0  0
    3.9854    0.2918    0.3974 C   0  0  0  0  0  0  0  0  0  0  0  0
    4.3651    0.6277    0.1635 C   0  0  0  0  0  0  0  0  0  0  0  0
    3.2435   -0.3551    0.8354 C   0  0  0  0  0  0  0  0  0  0  0  0
   -0.3215   -4.4331   -1.4524 C   0  0  0  0  0  0  0  0  0  0  0  0
   -1.5614   -3.9260   -1.2477 C   0  0  0  0  0  0  0  0  0  0  0  0
    0.7824   -3.7400   -1.0560 C   0  0  0  0  0  0  0  0  0  0  0  0
    5.4082    1.5387   -0.4947 C   0  0  0  0  0  0  0  0  0  0  0  0
    1.7922   -1.6333    1.6889 C   0  0  0  0  0  0  0  0  0  0  0  0
   -0.8440   -0.6230    0.5166 C   0  0  0  0  0  0  0  0  0  0  0  0
   -4.1657    3.5231   -0.0888 C   0  0  0  0  0  0  0  0  0  0  0  0
   -0.6707   -1.9692   -0.2141 C   0  0  0  0  0  0  0  0  0  0  0  0
   -1.7764   -2.7144   -0.6062 C   0  0  0  0  0  0  0  0  0  0  0  0
    0.6131   -2.4909   -0.4219 C   0  0  0  0  0  0  0  0  0  0  0  0
   -2.1676   -0.3594    0.7194 C   0  0  0  0  0  0  0  0  0  0  0  0
   -4.8999    2.1612    0.2658 C   0  0  2  0  0  0  0  0  0  0  0  0
   -3.2230   -1.3429    0.3834 C   0  0  0  0  0  0  0  0  0  0  0  0
   -3.7654    1.1284    0.0816 C   0  0  0  0  0  0  0  0  0  0  0  0
    6.4231    2.4323   -1.1357 C   0  0  0  0  0  0  0  0  0  0  0  0
   -5.6132    1.9445   -1.1471 N   0  0  0  0  0  0  0  0  0  0  0  0
   -3.1224   -2.3705   -0.2640 N   0  0  0  0  0  0  0  0  0  0  0  0
    1.8198   -2.1121    0.1956 N   0  0  0  0  0  0  0  0  0  0  0  0
   -4.5179   -1.0014    0.9313 O   0  0  0  0  0  0  0  0  0  0  0  0
   -3.5893    0.5078   -0.9939 O   0  0  0  0  0  0  0  0  0  0  0  0
   -2.8656    0.7798    1.1214 O   0  0  0  0  0  0  0  0  0  0  0  0
  1 16  1  0
  2 16  1  0
  3 24  1  0
  4 24  1  0
  5 24  1  0
  6 27  1  0
  7  8  1  0
  7  9  3  0
  8 13  3  0
  9 14  1  0
 10 11  2  0
 10 12  1  0
 11 18  1  0
 12 19  2  0
 13 24  1  0
 14 27  1  0
 15 17  1  0
 15 20  1  0
 16 21  1  0
 17 18  2  0
 17 19  1  0
 18 26  1  0
 19 27  1  0
 20 22  1  0
 20 30  1  0
 21 23  1  0
 21 25  1  6
 22 26  2  0
 22 28  1  0
 23 29  2  0
 23 30  1  0
M  END
>  <InChI>  (48) 
InChI=1S/C24H31N3O3/c1-16(2)21(25)23(29)30-20-15-17-18(26-22(20)28)11-10-12-19(17)27(6)14-9-7-8-13-24(3,4)5/h10-12,16,20-21H,14-15,25H2,1-6H3,(H,26,28)/t20?,21-/m1/s1

>  <Activity>  (48) 
No data

$$$$
P23316_48
     RDKit          3D

 22 23  0  0  1  0  0  0  0  0999 V2000
    6.3869    1.5230   -2.4274 C   0  0  0  0  0  0  0  0  0  0  0  0
    6.8446    2.3039   -0.1592 C   0  0  0  0  0  0  0  0  0  0  0  0
    7.6333    0.0353   -0.8507 C   0  0  0  0  0  0  0  0  0  0  0  0
   -5.4244    0.7943    2.2265 C   0  0  0  0  0  0  0  0  0  0  0  0
    2.9959   -0.7580    0.4319 C   0  0  0  0  0  0  0  0  0  0  0  0
    4.2215   -0.1195   -0.0726 C   0  0  0  0  0  0  0  0  0  0  0  0
    1.9540   -0.7434   -0.2583 C   0  0  0  0  0  0  0  0  0  0  0  0
   -1.4009    0.7789    2.1359 C   0  0  0  0  0  0  0  0  0  0  0  0
   -0.6068    0.1850    1.2164 C   0  0  0  0  0  0  0  0  0  0  0  0
   -2.7204    0.8017    2.2292 C   0  0  0  0  0  0  0  0  0  0  0  0
   -3.2857   -1.2064   -0.8013 C   0  0  0  0  0  0  0  0  0  0  0  0
   -4.6909   -1.1903   -0.8025 C   0  0  0  0  0  0  0  0  0  0  0  0
    5.3229    0.4307   -0.5124 C   0  0  0  0  0  0  0  0  0  0  0  0
    0.8343   -0.7463   -0.9623 C   0  0  0  0  0  0  0  0  0  0  0  0
   -2.6350   -0.5499    0.2327 C   0  0  0  0  0  0  0  0  0  0  0  0
   -1.2758   -0.5357    0.1863 C   0  0  0  0  0  0  0  0  0  0  0  0
   -3.3970    0.0753    1.1890 C   0  0  0  0  0  0  0  0  0  0  0  0
   -5.4321   -0.5565    0.1610 C   0  0  0  0  0  0  0  0  0  0  0  0
    6.5462    1.0359   -0.9746 C   0  0  0  0  0  0  0  0  0  0  0  0
   -0.4754   -1.1341   -0.7816 N   0  0  0  0  0  0  0  0  0  0  0  0
   -4.7284    0.0868    1.1714 N   0  0  0  0  0  0  0  0  0  0  0  0
   -6.6668   -0.5107    0.2038 O   0  0  0  0  0  0  0  0  0  0  0  0
  1 19  1  0
  2 19  1  0
  3 19  1  0
  4 21  1  0
  5  6  1  0
  5  7  2  0
  6 13  3  0
  7 14  1  0
  8  9  2  0
  8 10  1  0
  9 16  1  0
 10 17  2  0
 11 12  2  0
 11 15  1  0
 12 18  1  0
 13 19  1  0
 14 20  1  0
 15 16  2  0
 15 17  1  0
 16 20  1  0
 17 21  1  0
 18 21  1  0
 18 22  2  0
M  END
>  <InChI>  (49) 
InChI=1S/C19H22N2O/c1-19(2,3)13-6-5-7-14-20-16-9-8-10-17-15(16)11-12-18(22)21(17)4/h5,7-12,20H,14H2,1-4H3/b7-5+

>  <Activity>  (49) 
No data

$$$$
P23316_49
     RDKit          2D

 25 26  0  0  1  0  0  0  0  0999 V2000
   -7.7282   -9.0360    0.0000 C   0  0  0  0  0  0  0  0  0  0  0  0
    1.5000    0.0000    0.0000 C   0  0  0  0  0  0  0  0  0  0  0  0
    0.7500   -1.2990    0.0000 C   0  0  0  0  0  0  0  0  0  0  0  0
   -6.3579   -8.4259    0.0000 C   0  0  0  0  0  0  0  0  0  0  0  0
    0.7500    1.2990    0.0000 C   0  0  0  0  0  0  0  0  0  0  0  0
   -4.6740   -4.8322    0.0000 C   0  0  0  0  0  0  0  0  0  0  0  0
   -2.0046   -4.9721    0.0000 C   0  0  0  0  0  0  0  0  0  0  0  0
   -0.8899   -3.9684    0.0000 C   0  0  0  0  0  0  0  0  0  0  0  0
   -3.3037   -4.2221    0.0000 C   0  0  0  0  0  0  0  0  0  0  0  0
   -6.2011   -6.9341    0.0000 C   0  0  0  0  0  0  0  0  0  0  0  0
   -1.5000   -2.5981    0.0000 C   0  0  0  0  0  0  0  0  0  0  0  0
   -5.8875   -3.9505    0.0000 C   0  0  0  0  0  0  0  0  0  0  0  0
   -1.5000    0.0000    0.0000 C   0  0  0  0  0  0  0  0  0  0  0  0
   -5.1443   -9.3075    0.0000 N   0  0  0  0  0  0  0  0  0  0  0  0
   -0.7500    1.2990    0.0000 N   0  0  0  0  0  0  0  0  0  0  0  0
   -4.8308   -6.3240    0.0000 N   0  0  0  0  0  0  0  0  0  0  0  0
   -0.7500   -1.2990    0.0000 N   0  0  0  0  0  0  0  0  0  0  0  0
    1.5000    2.5981    0.0000 O   0  0  0  0  0  0  0  0  0  0  0  0
   -1.8478   -6.4639    0.0000 O   0  0  0  0  0  0  0  0  0  0  0  0
    0.5773   -4.2803    0.0000 O   0  0  0  0  0  0  0  0  0  0  0  0
   -7.4146   -6.0524    0.0000 O   0  0  0  0  0  0  0  0  0  0  0  0
   -5.7307   -2.4587    0.0000 O   0  0  0  0  0  0  0  0  0  0  0  0
   -7.2578   -4.5606    0.0000 O   0  0  0  0  0  0  0  0  0  0  0  0
   -3.0000    0.0000    0.0000 O   0  0  0  0  0  0  0  0  0  0  0  0
   -2.9918   -2.7549    0.0000 O   0  0  0  0  0  0  0  0  0  0  0  0
  4  1  1  1
  2  3  2  0
  2  5  1  0
  3 17  1  0
  4 10  1  0
  4 14  1  0
  5 15  2  0
  5 18  1  0
  6  9  1  0
  6 12  1  0
  6 16  1  1
  7  8  1  0
  7  9  1  0
  7 19  1  6
  8 11  1  0
  8 20  1  6
  9 25  1  1
 10 16  2  3
 10 21  1  0
 11 17  1  1
 11 25  1  0
 12 22  2  0
 12 23  1  0
 13 15  1  0
 13 17  1  0
 13 24  2  0
M  END
>  <InChI>  (50) 
InChI=1S/C13H18N4O8/c1-4(14)10(21)16-6(12(22)23)9-7(19)8(20)11(25-9)17-3-2-5(18)15-13(17)24/h2-4,6-9,11,19-20H,14H2,1H3,(H,16,21)(H,22,23)(H,15,18,24)/t4-,6+,7-,8+,9+,11+/m0/s1

>  <Activity>  (50) 
No data

$$$$
P23316_50
     RDKit          3D

 30 31  0  0  1  0  0  0  0  0999 V2000
   -8.4435    1.3035   -0.0221 C   0  0  0  0  0  0  0  0  0  0  0  0
   -7.5756    1.7512    1.1348 C   0  0  0  0  0  0  0  0  0  0  0  0
   -6.2760    2.3259    0.6741 C   0  0  0  0  0  0  0  0  0  0  0  0
   -5.4982    1.2972   -0.1118 C   0  0  0  0  0  0  0  0  0  0  0  0
   -5.2133    0.0867    0.7448 C   0  0  0  0  0  0  0  0  0  0  0  0
   -4.4382   -0.9350   -0.0429 C   0  0  0  0  0  0  0  0  0  0  0  0
    4.3086    0.6885    1.9323 C   0  0  0  0  0  0  0  0  0  0  0  0
    3.4044    0.1909    1.0190 C   0  0  0  0  0  0  0  0  0  0  0  0
   -3.1369   -0.3551   -0.5045 C   0  0  0  0  0  0  0  0  0  0  0  0
    5.2198    1.6174    1.5050 C   0  0  0  0  0  0  0  0  0  0  0  0
   -0.6257   -1.4860   -0.2157 C   0  0  0  0  0  0  0  0  0  0  0  0
    1.2049   -1.9855   -1.8633 C   0  0  1  0  0  0  0  0  0  0  0  0
    2.5573   -1.6465   -0.9105 C   0  0  2  0  0  0  0  0  0  0  0  0
    0.2507   -0.6398   -1.3447 C   0  0  2  0  0  0  0  0  0  0  0  0
   -2.2602    0.0912    0.5902 C   0  0  0  0  0  0  0  0  0  0  0  0
    2.3845    0.0396   -1.3029 C   0  0  2  0  0  0  0  0  0  0  0  0
    0.1957   -2.4273    0.4479 C   0  0  0  0  0  0  0  0  0  0  0  0
    4.2496    1.4574   -0.6536 C   0  0  0  0  0  0  0  0  0  0  0  0
   -3.2403    0.5552   -1.5919 N   0  0  0  0  0  0  0  0  0  0  0  0
    5.1743    1.9865    0.2164 N   0  0  0  0  0  0  0  0  0  0  0  0
   -1.1017   -0.4620    0.6862 N   0  0  0  0  0  0  0  0  0  0  0  0
    3.3669    0.5509   -0.2184 N   0  0  0  0  0  0  0  0  0  0  0  0
    6.1652    2.1593    2.3916 O   0  0  0  0  0  0  0  0  0  0  0  0
    1.6266   -1.2407   -3.1108 O   0  0  0  0  0  0  0  0  0  0  0  0
    3.5986   -1.9124   -1.9583 O   0  0  0  0  0  0  0  0  0  0  0  0
   -2.5704    1.0579    1.5318 O   0  0  0  0  0  0  0  0  0  0  0  0
    0.4094   -2.2193    1.6613 O   0  0  0  0  0  0  0  0  0  0  0  0
    0.8362   -3.5741    0.0190 O   0  0  0  0  0  0  0  0  0  0  0  0
    4.2317    1.8233   -1.8561 O   0  0  0  0  0  0  0  0  0  0  0  0
    1.1955   -0.0990   -0.3066 O   0  0  0  0  0  0  0  0  0  0  0  0
  1  2  1  0
  2  3  1  0
  3  4  1  0
  4  5  1  0
  5  6  1  0
  6  9  1  0
  7  8  2  0
  7 10  1  0
  8 22  1  0
  9 15  1  0
  9 19  1  0
 10 20  2  0
 10 23  1  0
 14 11  1  1
 11 17  1  0
 11 21  1  0
 12 13  1  0
 12 14  1  0
 12 24  1  6
 13 16  1  0
 13 25  1  6
 14 30  1  0
 15 21  2  3
 15 26  1  0
 16 22  1  1
 16 30  1  0
 17 27  2  0
 17 28  1  0
 18 20  1  0
 18 22  1  0
 18 29  2  0
M  END
>  <InChI>  (51) 
InChI=1S/C18H28N4O8/c1-2-3-4-5-6-9(19)15(26)21-11(17(27)28)14-12(24)13(25)16(30-14)22-8-7-10(23)20-18(22)29/h7-9,11-14,16,24-25H,2-6,19H2,1H3,(H,21,26)(H,27,28)(H,20,23,29)/t9?,11?,12-,13+,14+,16+/m0/s1

>  <Activity>  (51) 
No data

$$$$
P23316_51
     RDKit          3D

 31 32  0  0  1  0  0  0  0  0999 V2000
    5.1819   -0.7750   -0.2498 C   0  0  0  0  0  0  0  0  0  0  0  0
    4.1283    0.2848   -0.1756 C   0  0  0  0  0  0  0  0  0  0  0  0
   -5.8868    1.4005    1.4907 C   0  0  0  0  0  0  0  0  0  0  0  0
    5.9016   -1.0441    1.0163 C   0  0  0  0  0  0  0  0  0  0  0  0
   -4.8771    0.4389    1.3001 C   0  0  0  0  0  0  0  0  0  0  0  0
    3.0261   -0.0032    0.8005 C   0  0  0  0  0  0  0  0  0  0  0  0
   -6.3589    2.1221    0.4205 C   0  0  0  0  0  0  0  0  0  0  0  0
    0.1939   -0.1263    0.2283 C   0  0  2  0  0  0  0  0  0  0  0  0
   -1.3286   -1.2955   -1.4588 C   0  0  1  0  0  0  0  0  0  0  0  0
   -2.8731   -0.6103   -1.7064 C   0  0  2  0  0  0  0  0  0  0  0  0
   -1.2700   -1.0065    0.2127 C   0  0  2  0  0  0  0  0  0  0  0  0
    2.3432   -1.2468    0.4387 C   0  0  0  0  0  0  0  0  0  0  0  0
   -3.2740   -0.8408   -0.0554 C   0  0  2  0  0  0  0  0  0  0  0  0
    0.2818    0.2940   -1.2833 C   0  0  0  0  0  0  0  0  0  0  0  0
    7.7409    0.6569    0.8587 C   0  0  0  0  0  0  0  0  0  0  0  0
   -4.8328    0.9192   -0.9332 C   0  0  0  0  0  0  0  0  0  0  0  0
    3.3604    0.1599    2.1627 N   0  0  0  0  0  0  0  0  0  0  0  0
    8.5338   -0.1819    0.2718 N   0  0  0  0  0  0  0  0  0  0  0  0
    6.6085    0.1241    1.5348 N   0  0  0  0  0  0  0  0  0  0  0  0
   -5.8236    1.8703   -0.7780 N   0  0  0  0  0  0  0  0  0  0  0  0
    1.1182   -1.3806    0.1761 N   0  0  0  0  0  0  0  0  0  0  0  0
   -4.3751    0.2270    0.0715 N   0  0  0  0  0  0  0  0  0  0  0  0
   -7.3681    3.0882    0.5905 O   0  0  0  0  0  0  0  0  0  0  0  0
   -1.7461   -2.7273   -1.2215 O   0  0  0  0  0  0  0  0  0  0  0  0
   -3.5818   -1.8068   -2.2596 O   0  0  0  0  0  0  0  0  0  0  0  0
    3.1184   -2.3972    0.3779 O   0  0  0  0  0  0  0  0  0  0  0  0
   -0.4090    1.3364   -1.4686 O   0  0  0  0  0  0  0  0  0  0  0  0
    0.9923   -0.3820   -2.1945 O   0  0  0  0  0  0  0  0  0  0  0  0
    7.9484    2.0178    0.8526 O   0  0  0  0  0  0  0  0  0  0  0  0
   -4.3396    0.6856   -2.0334 O   0  0  0  0  0  0  0  0  0  0  0  0
   -2.1329    0.1987    0.2261 O   0  0  0  0  0  0  0  0  0  0  0  0
  1  2  1  0
  1  4  1  0
  2  6  1  0
  3  5  2  0
  3  7  1  0
  4 19  1  0
  5 22  1  0
  6 12  1  0
  6 17  1  0
  7 20  2  0
  7 23  1  0
  8 11  1  0
  8 14  1  0
  8 21  1  6
  9 10  1  0
  9 11  1  0
  9 24  1  1
 10 13  1  0
 10 25  1  6
 11 31  1  6
 12 21  2  3
 12 26  1  0
 13 22  1  6
 13 31  1  0
 14 27  2  0
 14 28  1  0
 15 18  2  0
 15 19  1  0
 15 29  1  0
 16 20  1  0
 16 22  1  0
 16 30  2  0
M  END
>  <InChI>  (52) 
InChI=1S/C16H24N6O9/c17-6(2-1-4-19-15(18)29)12(26)21-8(14(27)28)11-9(24)10(25)13(31-11)22-5-3-7(23)20-16(22)30/h3,5-6,8-11,13,24-25H,1-2,4,17H2,(H,21,26)(H,27,28)(H3,18,19,29)(H,20,23,30)/t6?,8-,9+,10-,11-,13-/m1/s1

>  <Activity>  (52) 
No data

$$$$
P23316_52
     RDKit          3D

 25 26  0  0  1  0  0  0  0  0999 V2000
    5.7735   -0.6597   -1.1178 C   0  0  0  0  0  0  0  0  0  0  0  0
    5.5699    1.1033    0.6310 C   0  0  0  0  0  0  0  0  0  0  0  0
    6.7255   -1.0271    1.0910 C   0  0  0  0  0  0  0  0  0  0  0  0
   -2.2269   -1.0864   -2.8496 C   0  0  0  0  0  0  0  0  0  0  0  0
    1.9869   -2.1060    1.4708 C   0  0  0  0  0  0  0  0  0  0  0  0
    3.2272   -1.4993    1.0895 C   0  0  0  0  0  0  0  0  0  0  0  0
    0.8532   -1.9805    1.0981 C   0  0  0  0  0  0  0  0  0  0  0  0
   -0.1452    2.7149    0.3893 C   0  0  0  0  0  0  0  0  0  0  0  0
   -1.4428    3.1207    0.6052 C   0  0  0  0  0  0  0  0  0  0  0  0
    0.0673    1.3941    0.0575 C   0  0  0  0  0  0  0  0  0  0  0  0
   -3.3150   -0.0619    0.0257 C   0  0  0  0  0  0  0  0  0  0  0  0
   -4.6633    0.4536    0.2746 C   0  0  0  0  0  0  0  0  0  0  0  0
    4.2958   -0.9993    0.7579 C   0  0  0  0  0  0  0  0  0  0  0  0
   -0.4415   -1.8371    0.6723 C   0  0  0  0  0  0  0  0  0  0  0  0
   -2.2613    0.9479    0.1672 C   0  0  0  0  0  0  0  0  0  0  0  0
   -2.5251    2.2525    0.5000 C   0  0  0  0  0  0  0  0  0  0  0  0
   -0.9520    0.4910   -0.0618 C   0  0  0  0  0  0  0  0  0  0  0  0
   -4.7940    1.8622    0.6193 C   0  0  0  0  0  0  0  0  0  0  0  0
    5.5537   -0.3909    0.3572 C   0  0  0  0  0  0  0  0  0  0  0  0
   -3.8565    2.7271    0.7362 N   0  0  0  0  0  0  0  0  0  0  0  0
   -0.6898   -0.8730   -0.4080 N   0  0  0  0  0  0  0  0  0  0  0  0
   -6.1224    2.3108    0.8490 O   0  0  0  0  0  0  0  0  0  0  0  0
   -0.3289   -2.8207   -2.1088 O   0  0  0  0  0  0  0  0  0  0  0  0
    0.3775   -0.5732   -2.7968 O   0  0  0  0  0  0  0  0  0  0  0  0
   -0.6656   -1.3484   -2.0491 S   0  0  0  0  0  6  0  0  0  0  0  0
  1 19  1  0
  2 19  1  0
  3 19  1  0
  4 25  1  0
  5  6  1  0
  5  7  2  0
  6 13  3  0
  7 14  1  0
  8  9  2  0
  8 10  1  0
  9 16  1  0
 10 17  2  0
 11 12  1  0
 11 15  1  0
 12 18  1  0
 13 19  1  0
 14 21  1  0
 15 16  2  0
 15 17  1  0
 16 20  1  0
 17 21  1  0
 18 20  2  0
 18 22  1  0
 21 25  1  0
 23 25  2  0
 24 25  2  0
M  END
>  <InChI>  (53) 
InChI=1S/C19H24N2O3S/c1-19(2,3)13-6-5-7-14-21(25(4,23)24)17-10-8-9-16-15(17)11-12-18(22)20-16/h5,7-10H,11-12,14H2,1-4H3,(H,20,22)/b7-5+

>  <Activity>  (53) 
No data

$$$$
P23316_53
     RDKit          3D

 20 21  0  0  1  0  0  0  0  0999 V2000
    6.6081    0.6004    0.2170 C   0  0  0  0  0  0  0  0  0  0  0  0
    6.2297   -0.1922    2.4888 C   0  0  0  0  0  0  0  0  0  0  0  0
    6.6104   -1.8720    0.6761 C   0  0  0  0  0  0  0  0  0  0  0  0
    1.9272   -0.5604    0.3138 C   0  0  0  0  0  0  0  0  0  0  0  0
    3.3531   -0.5527    0.5649 C   0  0  0  0  0  0  0  0  0  0  0  0
    1.2415   -1.6872    0.2564 C   0  0  0  0  0  0  0  0  0  0  0  0
   -4.3309   -1.5870   -0.4228 C   0  0  0  0  0  0  0  0  0  0  0  0
   -2.8122    3.1024   -0.5148 C   0  0  0  0  0  0  0  0  0  0  0  0
   -2.1340    1.9287   -0.4017 C   0  0  0  0  0  0  0  0  0  0  0  0
   -2.9450   -1.6190   -0.3002 C   0  0  0  0  0  0  0  0  0  0  0  0
   -4.9571   -0.3681   -0.5386 C   0  0  0  0  0  0  0  0  0  0  0  0
    4.5403   -0.5321    0.7679 C   0  0  0  0  0  0  0  0  0  0  0  0
   -0.1844   -1.8436    0.0159 C   0  0  0  0  0  0  0  0  0  0  0  0
   -4.1799    3.1509   -0.6361 C   0  0  0  0  0  0  0  0  0  0  0  0
   -2.8612    0.7465   -0.4108 C   0  0  0  0  0  0  0  0  0  0  0  0
   -2.2076   -0.4587   -0.2932 C   0  0  0  0  0  0  0  0  0  0  0  0
   -4.2302    0.8081   -0.5336 C   0  0  0  0  0  0  0  0  0  0  0  0
    6.0059   -0.5233    1.0387 C   0  0  0  0  0  0  0  0  0  0  0  0
   -0.8022   -0.5508   -0.1575 N   0  0  0  0  0  0  0  0  0  0  0  0
   -4.8716    2.0100   -0.6448 N   0  0  0  0  0  0  0  0  0  0  0  0
  1 18  1  0
  2 18  1  0
  3 18  1  0
  4  5  1  0
  4  6  2  0
  5 12  3  0
  6 13  1  0
  7 10  2  0
  7 11  1  0
  8  9  2  0
  8 14  1  0
  9 15  1  0
 10 16  1  0
 11 17  2  0
 12 18  1  0
 13 19  1  0
 14 20  2  0
 15 16  2  0
 15 17  1  0
 16 19  1  0
 17 20  1  0
M  END
>  <InChI>  (54) 
InChI=1S/C18H20N2/c1-18(2,3)12-5-4-6-13-19-16-10-7-11-17-15(16)9-8-14-20-17/h4,6-11,14,19H,13H2,1-3H3/b6-4+

>  <Activity>  (54) 
No data

$$$$
P23316_54
     RDKit          3D

 18 18  0  0  1  0  0  0  0  0999 V2000
    3.3907    4.1867    2.2362 C   0  0  0  0  0  0  0  0  0  0  0  0
    4.1038    3.0537    4.3161 C   0  0  0  0  0  0  0  0  0  0  0  0
    5.4968    2.9462    2.2367 C   0  0  0  0  0  0  0  0  0  0  0  0
    2.1548   -0.4992    1.6773 C   0  0  0  0  0  0  0  0  0  0  0  0
    2.8480    0.7268    2.1057 C   0  0  0  0  0  0  0  0  0  0  0  0
    0.8368   -0.5192    1.6461 C   0  0  0  0  0  0  0  0  0  0  0  0
   -2.6793   -0.5342   -1.7396 C   0  0  0  0  0  0  0  0  0  0  0  0
   -3.4527   -0.1160   -2.8230 C   0  0  0  0  0  0  0  0  0  0  0  0
    3.4110    1.7246    2.4332 C   0  0  0  0  0  0  0  0  0  0  0  0
    0.0021   -1.6838    1.2315 C   0  0  0  0  0  0  0  0  0  0  0  0
   -1.6010   -2.3652   -0.3987 C   0  0  0  0  0  0  0  0  0  0  0  0
   -2.9601   -2.7704   -2.4394 C   0  0  0  0  0  0  0  0  0  0  0  0
   -2.4382   -1.8757   -1.5568 C   0  0  0  0  0  0  0  0  0  0  0  0
   -3.9651   -1.0648   -3.6989 C   0  0  0  0  0  0  0  0  0  0  0  0
    4.0983    2.9841    2.8263 C   0  0  0  0  0  0  0  0  0  0  0  0
   -0.8071   -1.2321    0.0891 N   0  0  0  0  0  0  0  0  0  0  0  0
   -3.7014   -2.3587   -3.4771 N   0  0  0  0  0  0  0  0  0  0  0  0
   -4.7374   -0.6028   -4.7770 O   0  0  0  0  0  0  0  0  0  0  0  0
  1 15  1  0
  2 15  1  0
  3 15  1  0
  4  5  1  0
  4  6  2  0
  5  9  3  0
  6 10  1  0
  7  8  2  0
  7 13  1  0
  8 14  1  0
  9 15  1  0
 10 16  1  0
 11 13  1  0
 11 16  1  0
 12 13  2  0
 12 17  1  0
 14 17  2  0
 14 18  1  0
M  END
>  <InChI>  (55) 
InChI=1S/C15H20N2O/c1-15(2,3)9-5-4-6-10-16-11-13-7-8-14(18)17-12-13/h4,6-8,12,16H,10-11H2,1-3H3,(H,17,18)/b6-4+

>  <Activity>  (55) 
No data

$$$$
P23316_55
     RDKit          3D

 56 58  0  0  1  0  0  0  0  0999 V2000
    7.6630    5.3964   -1.8494 C   0  0  0  0  0  0  0  0  0  0  0  0
    8.5104    5.3243   -0.6093 C   0  0  0  0  0  0  0  0  0  0  0  0
    7.6320    5.1215    0.6061 C   0  0  0  0  0  0  0  0  0  0  0  0
    6.8430    3.8518    0.5011 C   0  0  0  0  0  0  0  0  0  0  0  0
    5.9482    3.8676   -0.7150 C   0  0  0  0  0  0  0  0  0  0  0  0
    7.5013   -2.1584   -0.7291 C   0  0  0  0  0  0  0  0  0  0  0  0
    6.8525   -1.0026   -1.1216 C   0  0  0  0  0  0  0  0  0  0  0  0
    6.7137   -3.1200   -0.1130 C   0  0  0  0  0  0  0  0  0  0  0  0
    5.1734    2.5730   -0.7821 C   0  0  0  0  0  0  0  0  0  0  0  0
    5.5144   -0.8072   -0.9199 C   0  0  0  0  0  0  0  0  0  0  0  0
    5.3762   -2.9273    0.0899 C   0  0  0  0  0  0  0  0  0  0  0  0
    4.3402    2.4444    0.4686 C   0  0  0  0  0  0  0  0  0  0  0  0
    3.3073   -1.6358   -0.0554 C   0  0  0  0  0  0  0  0  0  0  0  0
   -5.2249    2.1792   -1.0715 C   0  0  0  0  0  0  0  0  0  0  0  0
   -0.2349   -3.9638   -2.5385 C   0  0  0  0  0  0  0  0  0  0  0  0
    4.7704   -1.7728   -0.3113 C   0  0  0  0  0  0  0  0  0  0  0  0
   -6.4551    2.4403   -1.6774 C   0  0  0  0  0  0  0  0  0  0  0  0
    3.1210   -1.0064    1.2943 C   0  0  0  0  0  0  0  0  0  0  0  0
    1.0314   -3.5918   -1.8482 C   0  0  0  0  0  0  0  0  0  0  0  0
    3.5882    1.1565    0.3706 C   0  0  0  0  0  0  0  0  0  0  0  0
    0.5924   -1.7077   -0.2789 C   0  0  0  0  0  0  0  0  0  0  0  0
   -1.7315   -0.5943    0.7043 C   0  0  0  0  0  0  0  0  0  0  0  0
    0.8781   -3.1487   -0.4323 C   0  0  0  0  0  0  0  0  0  0  0  0
   -3.1293    0.3631    2.4459 C   0  0  1  0  0  0  0  0  0  0  0  0
   -4.2369    1.6353    2.3462 C   0  0  2  0  0  0  0  0  0  0  0  0
   -2.2376    0.8850    1.1096 C   0  0  2  0  0  0  0  0  0  0  0  0
   -7.4451    3.0290   -0.9269 C   0  0  0  0  0  0  0  0  0  0  0  0
    1.7053   -0.8298    1.6368 C   0  0  0  0  0  0  0  0  0  0  0  0
   -0.4792   -1.1738   -1.1503 C   0  0  0  0  0  0  0  0  0  0  0  0
   -3.6563    2.1994    0.8470 C   0  0  2  0  0  0  0  0  0  0  0  0
   -6.7058    2.1089   -3.0578 C   0  0  0  0  0  0  0  0  0  0  0  0
   -2.2083   -1.6422    1.4589 C   0  0  0  0  0  0  0  0  0  0  0  0
   -0.3581   -6.0905   -1.3667 C   0  0  0  0  0  0  0  0  0  0  0  0
   -5.9441    3.0494    0.9198 C   0  0  0  0  0  0  0  0  0  0  0  0
    0.8003   -6.3536   -1.8835 N   0  0  0  0  0  0  0  0  0  0  0  0
    3.7939    0.2710    1.2916 N   0  0  0  0  0  0  0  0  0  0  0  0
    0.7001   -1.1272    0.9714 N   0  0  0  0  0  0  0  0  0  0  0  0
   -1.5739   -0.6492   -0.6915 N   0  0  0  0  0  0  0  0  0  0  0  0
   -7.1731    3.3246    0.3620 N   0  0  0  0  0  0  0  0  0  0  0  0
   -5.0019    2.4891    0.2059 N   0  0  0  0  0  0  0  0  0  0  0  0
    1.7742   -2.7392   -2.6039 O   0  0  0  0  0  0  0  0  0  0  0  0
    2.7177    0.9602   -0.6783 O   0  0  0  0  0  0  0  0  0  0  0  0
    0.1176   -3.9938    0.3329 O   0  0  0  0  0  0  0  0  0  0  0  0
   -2.1562    0.8832    3.4373 O   0  0  0  0  0  0  0  0  0  0  0  0
   -3.5150    2.6977    3.1017 O   0  0  0  0  0  0  0  0  0  0  0  0
   -8.7064    3.3324   -1.4309 O   0  0  0  0  0  0  0  0  0  0  0  0
    1.4900   -0.2301    2.9199 O   0  0  0  0  0  0  0  0  0  0  0  0
   -0.3501   -1.2151   -2.5289 O   0  0  0  0  0  0  0  0  0  0  0  0
   -5.8120    1.5744   -3.7451 O   0  0  0  0  0  0  0  0  0  0  0  0
   -7.9292    2.3792   -3.6252 O   0  0  0  0  0  0  0  0  0  0  0  0
   -2.6476   -2.7310    0.9394 O   0  0  0  0  0  0  0  0  0  0  0  0
   -2.2710   -1.6540    2.8438 O   0  0  0  0  0  0  0  0  0  0  0  0
   -1.0141   -6.9616   -0.5030 O   0  0  0  0  0  0  0  0  0  0  0  0
   -5.7863    3.3521    2.0960 O   0  0  0  0  0  0  0  0  0  0  0  0
   -0.9506   -4.8604   -1.7157 O   0  0  0  0  0  0  0  0  0  0  0  0
   -3.5216    0.7997    0.2764 O   0  0  0  0  0  0  0  0  0  0  0  0
  1  2  1  0
  2  3  1  0
  3  4  1  0
  4  5  1  0
  5  9  1  0
  6  7  2  0
  6  8  1  0
  7 10  1  0
  8 11  2  0
  9 12  1  0
 10 16  2  0
 11 16  1  0
 12 20  1  0
 13 16  1  0
 13 18  1  0
 14 17  2  0
 14 40  1  0
 15 19  1  0
 15 55  1  0
 17 27  1  0
 17 31  1  0
 18 28  1  0
 18 36  1  0
 19 23  1  0
 19 41  1  0
 20 36  2  3
 20 42  1  0
 21 23  1  0
 21 29  1  0
 21 37  1  0
 26 22  1  6
 22 32  1  0
 22 38  1  0
 23 43  1  0
 24 25  1  0
 24 26  1  0
 24 44  1  1
 25 30  1  0
 25 45  1  1
 26 56  1  0
 27 39  2  0
 27 46  1  0
 28 37  2  3
 28 47  1  0
 29 38  2  3
 29 48  1  0
 30 40  1  6
 30 56  1  0
 31 49  2  0
 31 50  1  0
 32 51  2  0
 32 52  1  0
 33 35  2  0
 33 53  1  0
 33 55  1  0
 34 39  1  0
 34 40  1  0
 34 54  2  0
M  END
>  <InChI>  (56) 
InChI=1S/C34H46N6O16/c1-2-3-4-5-9-12-20(42)36-18(13-16-10-7-6-8-11-16)28(47)37-21(23(43)19(41)15-55-33(35)53)29(48)38-22(32(51)52)26-24(44)25(45)30(56-26)40-14-17(31(49)50)27(46)39-34(40)54/h6-8,10-11,14,18-19,21-26,30,41,43-45H,2-5,9,12-13,15H2,1H3,(H2,35,53)(H,36,42)(H,37,47)(H,38,48)(H,49,50)(H,51,52)(H,39,46,54)/t18?,19?,21?,22?,23?,24-,25+,26+,30+/m0/s1

>  <Activity>  (56) 
Inactive

$$$$
P23316_56
     RDKit          3D

 34 35  0  0  1  0  0  0  0  0999 V2000
   -0.2089   -7.6777   -3.2630 C   0  0  0  0  0  0  0  0  0  0  0  0
   -1.9208   -3.0999   -3.6812 C   0  0  0  0  0  0  0  0  0  0  0  0
   -1.7317   -4.3291   -4.1483 C   0  0  0  0  0  0  0  0  0  0  0  0
    3.8341    2.9468    4.7913 C   0  0  0  0  0  0  0  0  0  0  0  0
    3.3511    2.1695    3.7098 C   0  0  0  0  0  0  0  0  0  0  0  0
   -2.3794   -0.3750   -2.7325 C   0  0  0  0  0  0  0  0  0  0  0  0
   -2.3119   -1.5129   -1.5685 C   0  0  1  0  0  0  0  0  0  0  0  0
   -2.6234   -2.0734   -4.4561 C   0  0  0  0  0  0  0  0  0  0  0  0
    3.5377    4.2863    4.8098 C   0  0  0  0  0  0  0  0  0  0  0  0
   -1.0362   -5.3653   -3.3950 C   0  0  0  0  0  0  0  0  0  0  0  0
   -1.2272    1.5891    0.6160 C   0  0  1  0  0  0  0  0  0  0  0  0
    0.6237    0.0390    1.3347 C   0  0  1  0  0  0  0  0  0  0  0  0
    1.3165    0.7628    2.6753 C   0  0  2  0  0  0  0  0  0  0  0  0
    0.4786    1.4357    0.3952 C   0  0  2  0  0  0  0  0  0  0  0  0
   -1.8714   -0.5645   -0.3820 C   0  0  0  0  0  0  0  0  0  0  0  0
    2.1761    1.8064    1.6462 C   0  0  2  0  0  0  0  0  0  0  0  0
   -1.3071    2.8730   -0.2836 C   0  0  0  0  0  0  0  0  0  0  0  0
    2.3631    4.0154    2.7879 C   0  0  0  0  0  0  0  0  0  0  0  0
   -3.8349   -1.4370   -1.2194 N   0  0  0  0  0  0  0  0  0  0  0  0
   -2.7543   -0.9435   -3.9354 N   0  0  0  0  0  0  0  0  0  0  0  0
    2.8040    4.8144    3.8086 N   0  0  0  0  0  0  0  0  0  0  0  0
   -1.6535    0.6040   -0.4645 N   0  0  0  0  0  0  0  0  0  0  0  0
    2.6349    2.7310    2.7496 N   0  0  0  0  0  0  0  0  0  0  0  0
   -3.1104   -2.3820   -5.7163 O   0  0  0  0  0  0  0  0  0  0  0  0
    3.9926    5.0730    5.8492 O   0  0  0  0  0  0  0  0  0  0  0  0
   -0.5554   -5.1914   -2.2441 O   0  0  0  0  0  0  0  0  0  0  0  0
    1.8797   -0.3423    0.6155 O   0  0  0  0  0  0  0  0  0  0  0  0
    2.4020   -0.2177    2.9152 O   0  0  0  0  0  0  0  0  0  0  0  0
   -1.7569   -1.2556    0.8196 O   0  0  0  0  0  0  0  0  0  0  0  0
   -1.0715    3.9729    0.2245 O   0  0  0  0  0  0  0  0  0  0  0  0
   -1.6266    2.8321   -1.6146 O   0  0  0  0  0  0  0  0  0  0  0  0
    1.6799    4.4965    1.8514 O   0  0  0  0  0  0  0  0  0  0  0  0
   -0.8793   -6.6193   -3.9482 O   0  0  0  0  0  0  0  0  0  0  0  0
    0.7865    2.4193    1.4529 O   0  0  0  0  0  0  0  0  0  0  0  0
  1 33  1  0
  2  3  2  0
  2  8  1  0
  3 10  1  0
  4  5  2  0
  4  9  1  0
  5 23  1  0
  6  7  1  0
  6 20  1  0
  7 15  1  0
  7 19  1  1
  8 20  2  0
  8 24  1  0
  9 21  2  0
  9 25  1  0
 10 26  2  0
 10 33  1  0
 11 14  1  0
 11 17  1  0
 11 22  1  6
 12 13  1  0
 12 14  1  0
 12 27  1  6
 13 16  1  0
 13 28  1  6
 14 34  1  1
 15 22  2  3
 15 29  1  0
 16 23  1  1
 16 34  1  0
 17 30  2  0
 17 31  1  0
 18 21  1  0
 18 23  1  0
 18 32  2  0
M  END
>  <InChI>  (57) 
InChI=1S/C18H23N5O11/c1-33-10(26)3-2-8(24)20-6-7(19)15(29)22-11(17(30)31)14-12(27)13(28)16(34-14)23-5-4-9(25)21-18(23)32/h2-5,7,11-14,16,27-28H,6,19H2,1H3,(H,20,24)(H,22,29)(H,30,31)(H,21,25,32)/b3-2+/t7-,11-,12-,13+,14+,16+/m0/s1

>  <Activity>  (57) 
No data

$$$$
P23316_57
     RDKit          3D

 22 23  0  0  1  0  0  0  0  0999 V2000
    5.6471    0.9004    1.1926 C   0  0  0  0  0  0  0  0  0  0  0  0
    4.4319   -0.3163    3.0276 C   0  0  0  0  0  0  0  0  0  0  0  0
    3.4891    1.7498    2.0456 C   0  0  0  0  0  0  0  0  0  0  0  0
   -0.4276   -1.9089    1.3866 C   0  0  0  0  0  0  0  0  0  0  0  0
    2.3928   -1.6435   -1.3912 C   0  0  0  0  0  0  0  0  0  0  0  0
    3.0664   -0.8875   -0.2651 C   0  0  0  0  0  0  0  0  0  0  0  0
    1.2640   -2.2233   -0.9950 C   0  0  0  0  0  0  0  0  0  0  0  0
   -3.7596   -1.1305   -2.0569 C   0  0  0  0  0  0  0  0  0  0  0  0
   -3.8418    0.1945   -1.8155 C   0  0  0  0  0  0  0  0  0  0  0  0
   -2.7346   -1.8598   -1.4152 C   0  0  0  0  0  0  0  0  0  0  0  0
   -0.9875    0.7011    0.5893 C   0  0  0  0  0  0  0  0  0  0  0  0
   -1.2036    2.1948    0.7181 C   0  0  0  0  0  0  0  0  0  0  0  0
    3.6423   -0.2608    0.6992 C   0  0  0  0  0  0  0  0  0  0  0  0
    0.1141   -2.8930   -0.9129 C   0  0  0  0  0  0  0  0  0  0  0  0
   -1.9711    0.1453   -0.3413 C   0  0  0  0  0  0  0  0  0  0  0  0
   -2.9554    0.8145   -0.9662 C   0  0  0  0  0  0  0  0  0  0  0  0
   -1.8366   -1.2639   -0.5667 C   0  0  0  0  0  0  0  0  0  0  0  0
   -2.1990    2.7713    0.0467 C   0  0  0  0  0  0  0  0  0  0  0  0
    4.3004    0.4425    1.7737 C   0  0  0  0  0  0  0  0  0  0  0  0
   -3.1291    2.2630   -0.7941 N   0  0  0  0  0  0  0  0  0  0  0  0
   -0.7855   -2.0088   -0.0385 N   0  0  0  0  0  0  0  0  0  0  0  0
   -2.5166    4.2189    0.0791 O   0  0  0  0  0  0  0  0  0  0  0  0
  1 19  1  0
  2 19  1  0
  3 19  1  0
  4 21  1  0
  5  6  1  0
  5  7  2  0
  6 13  3  0
  7 14  1  0
  8  9  2  0
  8 10  1  0
  9 16  1  0
 10 17  2  0
 11 12  1  0
 11 15  1  0
 12 18  1  0
 13 19  1  0
 14 21  1  0
 15 16  2  0
 15 17  1  0
 16 20  1  0
 17 21  1  0
 18 20  2  0
 18 22  1  0
M  END
>  <InChI>  (58) 
InChI=1S/C19H24N2O/c1-19(2,3)13-6-5-7-14-21(4)17-10-8-9-16-15(17)11-12-18(22)20-16/h5,7-10H,11-12,14H2,1-4H3,(H,20,22)/b7-5+

>  <Activity>  (58) 
No data

$$$$
P23316_58
     RDKit          3D

 38 39  0  0  1  0  0  0  0  0999 V2000
   11.0725    1.1337    1.3418 C   0  0  0  0  0  0  0  0  0  0  0  0
   10.0861    0.2055    2.0052 C   0  0  0  0  0  0  0  0  0  0  0  0
    8.7283    0.2296    1.3804 C   0  0  0  0  0  0  0  0  0  0  0  0
    8.7058   -0.1640   -0.0599 C   0  0  0  0  0  0  0  0  0  0  0  0
    7.3086   -0.1061   -0.5823 C   0  0  0  0  0  0  0  0  0  0  0  0
    7.2500   -0.5045   -2.0589 C   0  0  0  0  0  0  0  0  0  0  0  0
    5.8459   -0.4461   -2.5836 C   0  0  0  0  0  0  0  0  0  0  0  0
    4.9459   -1.3971   -1.8010 C   0  0  0  0  0  0  0  0  0  0  0  0
    4.8771   -1.0930   -0.3627 C   0  0  0  0  0  0  0  0  0  0  0  0
    4.3903    0.1863    0.1003 C   0  0  0  0  0  0  0  0  0  0  0  0
    3.0601    0.6103   -0.1547 C   0  0  0  0  0  0  0  0  0  0  0  0
    2.5293    0.7758   -1.4918 C   0  0  0  0  0  0  0  0  0  0  0  0
    2.4548   -0.4275   -2.3419 C   0  0  0  0  0  0  0  0  0  0  0  0
    1.5592   -1.5039   -1.7181 C   0  0  0  0  0  0  0  0  0  0  0  0
   -7.4170    0.7499   -1.5654 C   0  0  0  0  0  0  0  0  0  0  0  0
   -6.1368    1.2004   -1.1776 C   0  0  0  0  0  0  0  0  0  0  0  0
    0.1857   -0.8898   -1.5738 C   0  0  0  0  0  0  0  0  0  0  0  0
   -8.0291   -0.2340   -0.8236 C   0  0  0  0  0  0  0  0  0  0  0  0
   -1.3505   -0.5927    1.0023 C   0  0  0  0  0  0  0  0  0  0  0  0
   -2.5475    1.2654    1.9964 C   0  0  1  0  0  0  0  0  0  0  0  0
   -4.2044    1.0661    1.9064 C   0  0  2  0  0  0  0  0  0  0  0  0
   -2.1967    0.6674    0.4491 C   0  0  2  0  0  0  0  0  0  0  0  0
   -0.7396   -1.8763   -0.9774 C   0  0  0  0  0  0  0  0  0  0  0  0
   -4.1551    1.2377    0.2190 C   0  0  2  0  0  0  0  0  0  0  0  0
   -0.2795   -0.2057    1.8352 C   0  0  0  0  0  0  0  0  0  0  0  0
   -6.1548   -0.2512    0.5608 C   0  0  0  0  0  0  0  0  0  0  0  0
    0.2141    0.3772   -0.9181 N   0  0  0  0  0  0  0  0  0  0  0  0
   -7.3870   -0.7289    0.2408 N   0  0  0  0  0  0  0  0  0  0  0  0
   -1.3161   -1.6191    0.1088 N   0  0  0  0  0  0  0  0  0  0  0  0
   -5.5354    0.6737   -0.1045 N   0  0  0  0  0  0  0  0  0  0  0  0
   -9.3065   -0.6874   -1.2058 O   0  0  0  0  0  0  0  0  0  0  0  0
   -2.4167    2.6657    1.5082 O   0  0  0  0  0  0  0  0  0  0  0  0
   -4.6763    2.4445    2.1638 O   0  0  0  0  0  0  0  0  0  0  0  0
   -0.9188   -3.0667   -1.6813 O   0  0  0  0  0  0  0  0  0  0  0  0
   -0.4572    0.7695    2.6080 O   0  0  0  0  0  0  0  0  0  0  0  0
    0.9757   -0.7959    1.8968 O   0  0  0  0  0  0  0  0  0  0  0  0
   -5.5117   -0.6996    1.5698 O   0  0  0  0  0  0  0  0  0  0  0  0
   -3.4528   -0.1213    0.2893 O   0  0  0  0  0  0  0  0  0  0  0  0
  1  2  1  0
  2  3  1  0
  3  4  1  0
  4  5  1  0
  5  6  1  0
  6  7  1  0
  7  8  1  0
  8  9  1  0
  9 10  1  0
 10 11  1  0
 11 12  1  0
 12 13  1  0
 13 14  1  0
 14 17  1  0
 15 16  2  0
 15 18  1  0
 16 30  1  0
 17 23  1  0
 17 27  1  0
 18 28  2  0
 18 31  1  0
 22 19  1  1
 19 25  1  0
 19 29  1  0
 20 21  1  0
 20 22  1  0
 20 32  1  6
 21 24  1  0
 21 33  1  1
 22 38  1  0
 23 29  2  3
 23 34  1  0
 24 30  1  6
 24 38  1  0
 25 35  2  0
 25 36  1  0
 26 28  1  0
 26 30  1  0
 26 37  2  0
M  END
>  <InChI>  (59) 
InChI=1S/C26H44N4O8/c1-2-3-4-5-6-7-8-9-10-11-12-13-14-17(27)23(34)29-19(25(35)36)22-20(32)21(33)24(38-22)30-16-15-18(31)28-26(30)37/h15-17,19-22,24,32-33H,2-14,27H2,1H3,(H,29,34)(H,35,36)(H,28,31,37)/t17?,19?,20-,21+,22+,24+/m0/s1

>  <Activity>  (59) 
No data

$$$$
P23316_59
     RDKit          3D

 31 32  0  0  1  0  0  0  0  0999 V2000
   -4.1995    3.1697   -0.8855 C   0  0  0  0  0  0  0  0  0  0  0  0
    0.2553    1.9682   -5.5220 C   0  0  0  0  0  0  0  0  0  0  0  0
    5.5787    3.8817    0.9837 C   0  0  0  0  0  0  0  0  0  0  0  0
    6.9951    1.9885    0.0655 C   0  0  0  0  0  0  0  0  0  0  0  0
    7.3427    2.6665    2.5427 C   0  0  0  0  0  0  0  0  0  0  0  0
    1.3907   -2.6604   -0.0074 C   0  0  0  0  0  0  0  0  0  0  0  0
   -3.2164    2.7196   -1.9556 C   0  0  0  0  0  0  0  0  0  0  0  0
   -1.0444    1.7042   -4.8638 C   0  0  0  0  0  0  0  0  0  0  0  0
    3.6042   -0.4298    2.1460 C   0  0  0  0  0  0  0  0  0  0  0  0
    4.3117    0.3964    1.9723 C   0  0  0  0  0  0  0  0  0  0  0  0
    2.7047   -1.4695    2.3661 C   0  0  0  0  0  0  0  0  0  0  0  0
   -1.9159   -1.8514    3.4991 C   0  0  0  0  0  0  0  0  0  0  0  0
   -3.0183   -1.4663    2.9009 C   0  0  0  0  0  0  0  0  0  0  0  0
   -0.7121   -2.1953    3.1115 C   0  0  0  0  0  0  0  0  0  0  0  0
    5.4095    1.6770    1.6737 C   0  0  0  0  0  0  0  0  0  0  0  0
    1.6934   -2.6402    2.6226 C   0  0  0  0  0  0  0  0  0  0  0  0
   -1.3768   -1.9381   -0.5742 C   0  0  0  0  0  0  0  0  0  0  0  0
   -1.5131   -1.8184    0.8248 C   0  0  0  0  0  0  0  0  0  0  0  0
   -2.7775   -1.4588    1.5219 C   0  0  0  0  0  0  0  0  0  0  0  0
   -0.4608   -2.1857    1.7835 C   0  0  0  0  0  0  0  0  0  0  0  0
   -2.1086   -0.9464   -1.3798 C   0  0  0  0  0  0  0  0  0  0  0  0
   -3.4678   -0.6930   -0.6753 C   0  0  0  0  0  0  0  0  0  0  0  0
    6.4259    2.9017    1.3867 C   0  0  0  0  0  0  0  0  0  0  0  0
   -3.6182   -0.9274    0.5223 N   0  0  0  0  0  0  0  0  0  0  0  0
    0.7828   -2.4599    1.2558 N   0  0  0  0  0  0  0  0  0  0  0  0
   -4.5334   -0.2219   -1.3447 O   0  0  0  0  0  0  0  0  0  0  0  0
   -3.2390    0.4520   -4.6946 O   0  0  0  0  0  0  0  0  0  0  0  0
   -3.3715    1.4188   -2.2663 O   0  0  0  0  0  0  0  0  0  0  0  0
   -0.9343    1.0374   -3.6024 O   0  0  0  0  0  0  0  0  0  0  0  0
   -2.3757   -1.1543   -2.7246 O   0  0  0  0  0  0  0  0  0  0  0  0
   -2.6114    0.5353   -3.3003 P   0  0  0  0  0  5  0  0  0  0  0  0
  1  7  1  0
  2  8  1  0
  3 23  1  0
  4 23  1  0
  5 23  1  0
  6 25  1  0
  7 28  1  0
  8 29  1  0
  9 10  1  0
  9 11  3  0
 10 15  3  0
 11 16  1  0
 12 13  2  0
 12 14  1  0
 13 19  1  0
 14 20  2  0
 15 23  1  0
 16 25  1  0
 17 18  1  0
 17 21  1  0
 18 19  2  0
 18 20  1  0
 19 24  1  0
 20 25  1  0
 21 22  1  0
 21 30  1  0
 22 24  2  0
 22 26  1  0
 27 31  2  0
 28 31  1  0
 29 31  1  0
 30 31  1  0
M  END
>  <InChI>  (60) 
InChI=1S/C23H31N2O5P/c1-7-28-31(27,29-8-2)30-21-17-18-19(24-22(21)26)13-12-14-20(18)25(6)16-11-9-10-15-23(3,4)5/h12-14,21H,7-8,16-17H2,1-6H3,(H,24,26)

>  <Activity>  (60) 
No data

$$$$
P23316_60
     RDKit          3D

 30 31  0  0  1  0  0  0  0  0999 V2000
   -5.7515   -1.8158    0.5961 C   0  0  0  0  0  0  0  0  0  0  0  0
   -7.8296   -0.5006   -0.0079 C   0  0  0  0  0  0  0  0  0  0  0  0
    7.7827    0.2376    1.3371 C   0  0  0  0  0  0  0  0  0  0  0  0
    7.9532   -2.2613    0.9379 C   0  0  0  0  0  0  0  0  0  0  0  0
    7.5589   -0.7151   -0.9553 C   0  0  0  0  0  0  0  0  0  0  0  0
    0.1563    0.3293    3.5417 C   0  0  0  0  0  0  0  0  0  0  0  0
    3.2358   -1.1438    1.1467 C   0  0  0  0  0  0  0  0  0  0  0  0
    4.4405   -1.1104    0.9537 C   0  0  0  0  0  0  0  0  0  0  0  0
    1.8451   -1.1853    1.3534 C   0  0  0  0  0  0  0  0  0  0  0  0
    1.6900    2.9131   -0.2862 C   0  0  0  0  0  0  0  0  0  0  0  0
    0.9257    2.3555   -1.2837 C   0  0  0  0  0  0  0  0  0  0  0  0
    1.4244    2.1867    0.9967 C   0  0  0  0  0  0  0  0  0  0  0  0
    5.9191   -1.0443    0.7244 C   0  0  0  0  0  0  0  0  0  0  0  0
    0.6273   -1.2114    1.5463 C   0  0  0  0  0  0  0  0  0  0  0  0
   -0.8828   -0.5303   -0.0034 C   0  0  0  0  0  0  0  0  0  0  0  0
   -6.4362   -0.7819   -0.0429 C   0  0  0  0  0  0  0  0  0  0  0  0
   -0.1244    0.6968   -0.0516 C   0  0  0  0  0  0  0  0  0  0  0  0
    0.0864    1.3625   -1.2806 C   0  0  0  0  0  0  0  0  0  0  0  0
    0.5982    1.1682    1.1197 C   0  0  0  0  0  0  0  0  0  0  0  0
   -2.0063   -0.7167   -0.9025 C   0  0  0  0  0  0  0  0  0  0  0  0
   -5.5339    0.6274   -0.0022 C   0  0  1  0  0  0  0  0  0  0  0  0
   -1.6960    0.0378   -2.2304 C   0  0  0  0  0  0  0  0  0  0  0  0
   -4.3621   -0.0852   -0.8258 C   0  0  0  0  0  0  0  0  0  0  0  0
    7.2641   -0.9987    0.4969 C   0  0  0  0  0  0  0  0  0  0  0  0
   -6.2219    1.2235   -1.2462 N   0  0  0  0  0  0  0  0  0  0  0  0
   -0.8136    0.9001   -2.3289 N   0  0  0  0  0  0  0  0  0  0  0  0
    0.3883    0.2805    2.2334 N   0  0  0  0  0  0  0  0  0  0  0  0
   -2.4695   -0.3086   -3.3188 O   0  0  0  0  0  0  0  0  0  0  0  0
   -4.6383   -0.5967   -1.9279 O   0  0  0  0  0  0  0  0  0  0  0  0
   -3.1301   -0.1047   -0.2898 O   0  0  0  0  0  0  0  0  0  0  0  0
  1 16  1  0
  2 16  1  0
  3 24  1  0
  4 24  1  0
  5 24  1  0
  6 27  1  0
  7  8  1  0
  7  9  3  0
  8 13  3  0
  9 14  1  0
 10 11  2  0
 10 12  1  0
 11 18  1  0
 12 19  2  0
 13 24  1  0
 14 27  1  0
 15 17  1  0
 15 20  1  0
 16 21  1  0
 17 18  2  0
 17 19  1  0
 18 26  1  0
 19 27  1  0
 20 22  1  0
 20 30  1  0
 21 23  1  0
 21 25  1  6
 22 26  2  0
 22 28  1  0
 23 29  2  0
 23 30  1  0
M  END
>  <InChI>  (61) 
InChI=1S/C24H31N3O3/c1-16(2)21(25)23(29)30-20-15-17-18(26-22(20)28)11-10-12-19(17)27(6)14-9-7-8-13-24(3,4)5/h10-12,16,20-21H,14-15,25H2,1-6H3,(H,26,28)/t20?,21-/m0/s1

>  <Activity>  (61) 
No data

$$$$
P23316_61
     RDKit          3D

 24 25  0  0  1  0  0  0  0  0999 V2000
   -0.6171   -0.3462   -3.8063 C   0  0  0  0  0  0  0  0  0  0  0  0
    6.2950   -2.0267   -0.5709 C   0  0  0  0  0  0  0  0  0  0  0  0
    6.2600    0.0934    0.6713 C   0  0  0  0  0  0  0  0  0  0  0  0
    6.5090    0.0737   -1.7915 C   0  0  0  0  0  0  0  0  0  0  0  0
    1.7307   -0.4560   -1.0490 C   0  0  0  0  0  0  0  0  0  0  0  0
    3.1754   -0.5111   -0.8994 C   0  0  0  0  0  0  0  0  0  0  0  0
    1.0199   -1.5805   -1.0482 C   0  0  0  0  0  0  0  0  0  0  0  0
   -0.8961    2.5503    1.2545 C   0  0  0  0  0  0  0  0  0  0  0  0
   -1.9656    2.1340    2.0146 C   0  0  0  0  0  0  0  0  0  0  0  0
   -0.5657    1.7876    0.1557 C   0  0  0  0  0  0  0  0  0  0  0  0
   -3.0558   -0.9331    0.2324 C   0  0  0  0  0  0  0  0  0  0  0  0
   -4.2022   -1.3163    1.0840 C   0  0  0  0  0  0  0  0  0  0  0  0
    4.3704   -0.5366   -0.7729 C   0  0  0  0  0  0  0  0  0  0  0  0
   -0.4468   -1.4895   -1.2027 C   0  0  0  0  0  0  0  0  0  0  0  0
   -0.9879    0.4507   -2.6227 C   0  0  0  0  0  0  0  0  0  0  0  0
   -2.3312    0.2765    0.6121 C   0  0  0  0  0  0  0  0  0  0  0  0
   -2.6955    1.0011    1.7106 C   0  0  0  0  0  0  0  0  0  0  0  0
   -1.2579    0.6507   -0.1930 C   0  0  0  0  0  0  0  0  0  0  0  0
   -4.4981   -0.4673    2.2322 C   0  0  0  0  0  0  0  0  0  0  0  0
    5.8225   -0.5847   -0.6021 C   0  0  0  0  0  0  0  0  0  0  0  0
   -3.8021    0.5741    2.4926 N   0  0  0  0  0  0  0  0  0  0  0  0
   -0.8979   -0.1230   -1.3409 N   0  0  0  0  0  0  0  0  0  0  0  0
   -1.3775    1.6261   -2.7700 O   0  0  0  0  0  0  0  0  0  0  0  0
   -5.5857   -0.8472    3.0415 O   0  0  0  0  0  0  0  0  0  0  0  0
  1 15  1  0
  2 20  1  0
  3 20  1  0
  4 20  1  0
  5  6  1  0
  5  7  2  0
  6 13  3  0
  7 14  1  0
  8  9  2  0
  8 10  1  0
  9 17  1  0
 10 18  2  0
 11 12  1  0
 11 16  1  0
 12 19  1  0
 13 20  1  0
 14 22  1  0
 15 22  1  0
 15 23  2  0
 16 17  2  0
 16 18  1  0
 17 21  1  0
 18 22  1  0
 19 21  2  0
 19 24  1  0
M  END
>  <InChI>  (62) 
InChI=1S/C20H24N2O2/c1-15(23)22(14-7-5-6-13-20(2,3)4)18-10-8-9-17-16(18)11-12-19(24)21-17/h5,7-10H,11-12,14H2,1-4H3,(H,21,24)/b7-5+

>  <Activity>  (62) 
No data

$$$$
P23316_62
     RDKit          3D

 23 24  0  0  1  0  0  0  0  0999 V2000
    4.8903    2.1346    1.8460 C   0  0  0  0  0  0  0  0  0  0  0  0
    6.4490    0.8675    0.3392 C   0  0  0  0  0  0  0  0  0  0  0  0
    5.0079    2.5883   -0.6015 C   0  0  0  0  0  0  0  0  0  0  0  0
   -2.1395   -3.2856   -1.0620 C   0  0  0  0  0  0  0  0  0  0  0  0
    2.1333   -1.2743   -0.0482 C   0  0  0  0  0  0  0  0  0  0  0  0
    3.1460   -0.2992    0.1467 C   0  0  0  0  0  0  0  0  0  0  0  0
    1.2871   -2.1178   -0.2155 C   0  0  0  0  0  0  0  0  0  0  0  0
   -0.2797    0.9406   -1.9902 C   0  0  0  0  0  0  0  0  0  0  0  0
   -1.1508    1.6918   -1.2370 C   0  0  0  0  0  0  0  0  0  0  0  0
   -0.2103   -0.4212   -1.8640 C   0  0  0  0  0  0  0  0  0  0  0  0
    4.0248    0.5190    0.3087 C   0  0  0  0  0  0  0  0  0  0  0  0
    0.2412   -3.1325   -0.4095 C   0  0  0  0  0  0  0  0  0  0  0  0
   -2.7515   -1.0318    0.7340 C   0  0  0  0  0  0  0  0  0  0  0  0
   -1.9054   -0.3000   -0.2066 C   0  0  0  0  0  0  0  0  0  0  0  0
   -1.9779    1.0605   -0.3295 C   0  0  0  0  0  0  0  0  0  0  0  0
   -1.0258   -1.0538   -0.9678 C   0  0  0  0  0  0  0  0  0  0  0  0
   -3.6921   -0.2268    1.5482 C   0  0  0  0  0  0  0  0  0  0  0  0
   -3.6739    1.2196    1.3234 C   0  0  0  0  0  0  0  0  0  0  0  0
    5.0764    1.5258    0.4910 C   0  0  0  0  0  0  0  0  0  0  0  0
   -2.9006    1.7815    0.4790 N   0  0  0  0  0  0  0  0  0  0  0  0
   -0.9751   -2.4739   -0.8149 N   0  0  0  0  0  0  0  0  0  0  0  0
   -4.9949   -0.6783    1.3068 O   0  0  0  0  0  0  0  0  0  0  0  0
   -4.5786    1.9658    2.1105 O   0  0  0  0  0  0  0  0  0  0  0  0
  1 19  1  0
  2 19  1  0
  3 19  1  0
  4 21  1  0
  5  6  1  0
  5  7  3  0
  6 11  3  0
  7 12  1  0
  8  9  2  0
  8 10  1  0
  9 15  1  0
 10 16  2  0
 11 19  1  0
 12 21  1  0
 13 14  1  0
 13 17  1  0
 14 15  2  0
 14 16  1  0
 15 20  1  0
 16 21  1  0
 17 18  1  0
 17 22  1  0
 18 20  2  0
 18 23  1  0
M  END
>  <InChI>  (63) 
InChI=1S/C19H22N2O2/c1-19(2,3)11-6-5-7-12-21(4)16-10-8-9-15-14(16)13-17(22)18(23)20-15/h8-10,17,22H,12-13H2,1-4H3,(H,20,23)

>  <Activity>  (63) 
No data

$$$$
P23316_63
     RDKit          3D

 46 47  0  0  1  0  0  0  0  0999 V2000
   -8.0978    4.8265   -1.8161 C   0  0  0  0  0  0  0  0  0  0  0  0
   -2.0272   -7.9418    1.3546 C   0  0  0  0  0  0  0  0  0  0  0  0
    0.3506   -8.2313    0.6485 C   0  0  0  0  0  0  0  0  0  0  0  0
   -7.1033    5.9528   -1.8858 C   0  0  0  0  0  0  0  0  0  0  0  0
   -5.8226    5.6749   -1.1891 C   0  0  0  0  0  0  0  0  0  0  0  0
   -5.0542    4.5153   -1.6771 C   0  0  0  0  0  0  0  0  0  0  0  0
   -5.7368    3.1981   -1.6040 C   0  0  0  0  0  0  0  0  0  0  0  0
   -6.1115    2.8335   -0.1967 C   0  0  0  0  0  0  0  0  0  0  0  0
   -1.6345   -0.1786    0.9221 C   0  0  0  0  0  0  0  0  0  0  0  0
   -2.0785   -0.1834   -0.5038 C   0  0  0  0  0  0  0  0  0  0  0  0
   -1.7536   -1.5431    1.5518 C   0  0  0  0  0  0  0  0  0  0  0  0
   -4.8023    2.7840    0.6027 C   0  0  0  0  0  0  0  0  0  0  0  0
    5.4126    4.0925   -1.6638 C   0  0  0  0  0  0  0  0  0  0  0  0
   -2.0006    1.1043   -1.2098 C   0  0  0  0  0  0  0  0  0  0  0  0
    5.4990    2.7673   -1.3068 C   0  0  0  0  0  0  0  0  0  0  0  0
   -0.9944   -6.3375   -0.3005 C   0  0  0  0  0  0  0  0  0  0  0  0
   -0.8082   -7.3073    0.8020 C   0  0  0  0  0  0  0  0  0  0  0  0
   -1.9489   -5.1135    0.2738 C   0  0  1  0  0  0  0  0  0  0  0  0
   -0.7383   -2.3911    0.5454 C   0  0  1  0  0  0  0  0  0  0  0  0
   -3.9763    1.7405   -0.0647 C   0  0  0  0  0  0  0  0  0  0  0  0
    4.3562    4.8684   -1.2276 C   0  0  0  0  0  0  0  0  0  0  0  0
    2.8617   -1.4534    1.7051 C   0  0  1  0  0  0  0  0  0  0  0  0
    3.6565   -1.3921   -0.6055 C   0  0  1  0  0  0  0  0  0  0  0  0
    4.2731   -0.0647   -1.5157 C   0  0  2  0  0  0  0  0  0  0  0  0
    2.7931   -0.3185    0.4041 C   0  0  2  0  0  0  0  0  0  0  0  0
   -0.9321   -4.6771    1.4350 C   0  0  0  0  0  0  0  0  0  0  0  0
    0.5825   -1.5435    0.8638 C   0  0  0  0  0  0  0  0  0  0  0  0
    4.6900    0.7802   -0.1696 C   0  0  0  0  0  0  0  0  0  0  0  0
    2.3508   -0.4497    2.8087 C   0  0  0  0  0  0  0  0  0  0  0  0
    3.5530    2.9471   -0.1145 C   0  0  0  0  0  0  0  0  0  0  0  0
   -1.3828   -4.0858   -0.7991 N   0  0  0  0  0  0  0  0  0  0  0  0
   -2.8374    2.1121   -0.5456 N   0  0  0  0  0  0  0  0  0  0  0  0
   -0.4506   -3.5732    1.5319 N   0  0  0  0  0  0  0  0  0  0  0  0
    3.4448    4.2430   -0.4483 N   0  0  0  0  0  0  0  0  0  0  0  0
    1.5445   -2.1497    1.3556 N   0  0  0  0  0  0  0  0  0  0  0  0
    4.5721    2.1697   -0.5263 N   0  0  0  0  0  0  0  0  0  0  0  0
   -4.4191    0.4271   -0.1613 O   0  0  0  0  0  0  0  0  0  0  0  0
    4.2590    6.2033   -1.5806 O   0  0  0  0  0  0  0  0  0  0  0  0
    2.5323   -1.6695   -1.5558 O   0  0  0  0  0  0  0  0  0  0  0  0
    2.9494    0.6750   -1.6810 O   0  0  0  0  0  0  0  0  0  0  0  0
   -0.6710   -5.7243    2.3222 O   0  0  0  0  0  0  0  0  0  0  0  0
    0.5270   -0.1939    0.5544 O   0  0  0  0  0  0  0  0  0  0  0  0
    1.1556   -0.5122    3.0821 O   0  0  0  0  0  0  0  0  0  0  0  0
    3.2694    0.3968    3.3630 O   0  0  0  0  0  0  0  0  0  0  0  0
    2.6606    2.4313    0.6185 O   0  0  0  0  0  0  0  0  0  0  0  0
    4.0885    0.2915    0.8297 O   0  0  0  0  0  0  0  0  0  0  0  0
  1  4  1  0
  2 17  1  0
  3 17  1  0
  4  5  1  0
  5  6  1  0
  6  7  1  0
  7  8  1  0
  8 12  1  0
  9 10  1  0
  9 11  1  0
 10 14  1  0
 19 11  1  1
 12 20  1  0
 13 15  2  0
 13 21  1  0
 14 32  1  0
 15 36  1  0
 16 17  1  0
 16 18  1  0
 18 26  1  0
 18 31  1  6
 19 27  1  0
 19 33  1  0
 20 32  2  3
 20 37  1  0
 21 34  2  0
 21 38  1  0
 22 25  1  0
 22 29  1  0
 22 35  1  6
 23 24  1  0
 23 25  1  0
 23 39  1  6
 24 28  1  0
 24 40  1  1
 25 46  1  1
 26 33  2  3
 26 41  1  0
 27 35  2  3
 27 42  1  0
 28 36  1  0
 28 46  1  0
 29 43  2  0
 29 44  1  0
 30 34  1  0
 30 36  1  0
 30 45  2  0
M  END
>  <InChI>  (64) 
InChI=1S/C30H50N6O10/c1-4-5-6-7-8-12-20(37)32-14-10-9-11-19(33-26(41)18(31)16-17(2)3)27(42)35-22(29(43)44)25-23(39)24(40)28(46-25)36-15-13-21(38)34-30(36)45/h13,15,17-19,22-25,28,39-40H,4-12,14,16,31H2,1-3H3,(H,32,37)(H,33,41)(H,35,42)(H,43,44)(H,34,38,45)/t18-,19-,22-,23-,24+,25+,28?/m0/s1

>  <Activity>  (64) 
No data

$$$$
P23316_64
     RDKit          3D

 21 22  0  0  1  0  0  0  0  0999 V2000
    5.5803   -1.6759   -0.6729 C   0  0  0  0  0  0  0  0  0  0  0  0
    5.4322   -0.4110    1.4857 C   0  0  0  0  0  0  0  0  0  0  0  0
    6.2895    0.6635   -0.5803 C   0  0  0  0  0  0  0  0  0  0  0  0
    1.4334    0.7867   -0.8944 C   0  0  0  0  0  0  0  0  0  0  0  0
    2.7812    0.4096   -0.5778 C   0  0  0  0  0  0  0  0  0  0  0  0
    1.0521    1.1898   -2.0804 C   0  0  0  0  0  0  0  0  0  0  0  0
   -1.1434   -2.1314   -0.3775 C   0  0  0  0  0  0  0  0  0  0  0  0
   -0.8810   -0.9354   -1.0417 C   0  0  0  0  0  0  0  0  0  0  0  0
   -2.0374   -2.1490    0.6687 C   0  0  0  0  0  0  0  0  0  0  0  0
   -3.0140    1.3951    0.7428 C   0  0  0  0  0  0  0  0  0  0  0  0
   -3.9025    1.3225    1.7991 C   0  0  0  0  0  0  0  0  0  0  0  0
    3.9168    0.0753   -0.3076 C   0  0  0  0  0  0  0  0  0  0  0  0
   -0.3262    1.5858   -2.4428 C   0  0  0  0  0  0  0  0  0  0  0  0
   -2.3935    0.2207    0.3726 C   0  0  0  0  0  0  0  0  0  0  0  0
   -1.4910    0.2445   -0.6853 C   0  0  0  0  0  0  0  0  0  0  0  0
   -2.6437   -0.9637    1.0191 C   0  0  0  0  0  0  0  0  0  0  0  0
   -4.1430    0.1409    2.4335 C   0  0  0  0  0  0  0  0  0  0  0  0
    5.2985   -0.3260   -0.0026 C   0  0  0  0  0  0  0  0  0  0  0  0
   -1.2526    1.4864   -1.3358 N   0  0  0  0  0  0  0  0  0  0  0  0
   -3.5130   -0.9715    2.0336 N   0  0  0  0  0  0  0  0  0  0  0  0
   -5.0429    0.0430    3.5106 O   0  0  0  0  0  0  0  0  0  0  0  0
  1 18  1  0
  2 18  1  0
  3 18  1  0
  4  5  1  0
  4  6  2  0
  5 12  3  0
  6 13  1  0
  7  8  2  0
  7  9  1  0
  8 15  1  0
  9 16  2  0
 10 11  2  0
 10 14  1  0
 11 17  1  0
 12 18  1  0
 13 19  1  0
 14 15  2  0
 14 16  1  0
 15 19  1  0
 16 20  1  0
 17 20  2  0
 17 21  1  0
M  END
>  <InChI>  (65) 
InChI=1S/C18H20N2O/c1-18(2,3)12-5-4-6-13-19-15-8-7-9-16-14(15)10-11-17(21)20-16/h4,6-11,19H,13H2,1-3H3,(H,20,21)/b6-4+

>  <Activity>  (65) 
No data

$$$$
P23316_65
     RDKit          3D

 31 32  0  0  1  0  0  0  0  0999 V2000
    5.5811    0.3233    0.7746 C   0  0  0  0  0  0  0  0  0  0  0  0
    4.1130    0.5369    0.9137 C   0  0  0  0  0  0  0  0  0  0  0  0
   -5.6878    0.6791   -1.0489 C   0  0  0  0  0  0  0  0  0  0  0  0
    5.9232   -0.3707   -0.5380 C   0  0  0  0  0  0  0  0  0  0  0  0
   -4.3352    0.4713   -1.0355 C   0  0  0  0  0  0  0  0  0  0  0  0
    3.4263   -0.9742    0.8678 C   0  0  2  0  0  0  0  0  0  0  0  0
   -6.4890   -0.2138   -0.3889 C   0  0  0  0  0  0  0  0  0  0  0  0
    0.0964    1.1359    1.2708 C   0  0  1  0  0  0  0  0  0  0  0  0
   -0.4234    0.7348   -1.1071 C   0  0  1  0  0  0  0  0  0  0  0  0
   -1.8818    0.1642   -1.7691 C   0  0  2  0  0  0  0  0  0  0  0  0
   -0.5736   -0.1644    0.3378 C   0  0  2  0  0  0  0  0  0  0  0  0
    1.9225   -0.4880    1.0290 C   0  0  0  0  0  0  0  0  0  0  0  0
   -2.2645   -0.7982   -0.3836 C   0  0  2  0  0  0  0  0  0  0  0  0
   -0.2493    0.4526    2.6748 C   0  0  0  0  0  0  0  0  0  0  0  0
    6.1235    1.7079   -1.9316 C   0  0  0  0  0  0  0  0  0  0  0  0
   -4.5753   -1.4250    0.2329 C   0  0  0  0  0  0  0  0  0  0  0  0
    3.6598   -1.2127    2.4305 N   0  0  0  0  0  0  0  0  0  0  0  0
    6.4139    2.4290   -0.8889 N   0  0  0  0  0  0  0  0  0  0  0  0
    5.4692    0.4474   -1.6735 N   0  0  0  0  0  0  0  0  0  0  0  0
   -5.9076   -1.2385    0.2322 N   0  0  0  0  0  0  0  0  0  0  0  0
    1.5701    0.6581    1.1123 N   0  0  0  0  0  0  0  0  0  0  0  0
   -3.8158   -0.5361   -0.4209 N   0  0  0  0  0  0  0  0  0  0  0  0
   -7.8955   -0.0651   -0.3582 O   0  0  0  0  0  0  0  0  0  0  0  0
    0.5542   -0.2382   -1.6939 O   0  0  0  0  0  0  0  0  0  0  0  0
   -1.4213   -1.0145   -2.5533 O   0  0  0  0  0  0  0  0  0  0  0  0
    1.0638   -1.5520    1.0616 O   0  0  0  0  0  0  0  0  0  0  0  0
   -1.4185    0.6917    3.0515 O   0  0  0  0  0  0  0  0  0  0  0  0
    0.6189   -0.2865    3.3576 O   0  0  0  0  0  0  0  0  0  0  0  0
    6.4326    2.1405   -3.2153 O   0  0  0  0  0  0  0  0  0  0  0  0
   -4.0530   -2.3815    0.8142 O   0  0  0  0  0  0  0  0  0  0  0  0
   -1.9766    0.3870    0.5610 O   0  0  0  0  0  0  0  0  0  0  0  0
  1  2  1  0
  1  4  1  0
  2  6  1  0
  3  5  2  0
  3  7  1  0
  4 19  1  0
  5 22  1  0
  6 12  1  0
  6 17  1  1
  7 20  2  0
  7 23  1  0
  8 11  1  0
  8 14  1  0
  8 21  1  6
  9 10  1  0
  9 11  1  0
  9 24  1  6
 10 13  1  0
 10 25  1  6
 11 31  1  1
 12 21  2  3
 12 26  1  0
 13 22  1  6
 13 31  1  0
 14 27  2  0
 14 28  1  0
 15 18  2  0
 15 19  1  0
 15 29  1  0
 16 20  1  0
 16 22  1  0
 16 30  2  0
M  END
>  <InChI>  (66) 
InChI=1S/C16H24N6O9/c17-6(2-1-4-19-15(18)29)12(26)21-8(14(27)28)11-9(24)10(25)13(31-11)22-5-3-7(23)20-16(22)30/h3,5-6,8-11,13,24-25H,1-2,4,17H2,(H,21,26)(H,27,28)(H3,18,19,29)(H,20,23,30)/t6-,8+,9+,10-,11-,13-/m1/s1

>  <Activity>  (66) 
No data

$$$$
P23316_66
     RDKit          3D

 32 34  0  0  1  0  0  0  0  0999 V2000
   -7.4728   -0.4158   -0.1857 C   0  0  0  0  0  0  0  0  0  0  0  0
   -7.0894    0.7715    0.3863 C   0  0  0  0  0  0  0  0  0  0  0  0
   -6.5735   -1.0844   -0.9718 C   0  0  0  0  0  0  0  0  0  0  0  0
   -5.8453    1.3236    0.2088 C   0  0  0  0  0  0  0  0  0  0  0  0
   -5.3134   -0.5683   -1.1781 C   0  0  0  0  0  0  0  0  0  0  0  0
    6.1773    1.0663    0.5986 C   0  0  0  0  0  0  0  0  0  0  0  0
    5.0759    0.3202    0.9678 C   0  0  0  0  0  0  0  0  0  0  0  0
   -3.5988    1.1396   -0.8569 C   0  0  0  0  0  0  0  0  0  0  0  0
   -4.9487    0.6238   -0.5953 C   0  0  0  0  0  0  0  0  0  0  0  0
   -2.6692    0.6833    0.1928 C   0  0  0  0  0  0  0  0  0  0  0  0
    6.3971    1.3348   -0.7306 C   0  0  0  0  0  0  0  0  0  0  0  0
   -0.3061   -0.4984   -0.3108 C   0  0  0  0  0  0  0  0  0  0  0  0
    0.9972   -0.4473    1.7853 C   0  0  1  0  0  0  0  0  0  0  0  0
    2.6295   -0.0012    1.8231 C   0  0  2  0  0  0  0  0  0  0  0  0
    1.0820   -1.2177    0.2392 C   0  0  2  0  0  0  0  0  0  0  0  0
   -2.5142   -0.7730    0.3384 C   0  0  0  0  0  0  0  0  0  0  0  0
    3.0120   -0.9713    0.4413 C   0  0  2  0  0  0  0  0  0  0  0  0
   -0.1449   -0.1605   -1.6889 C   0  0  0  0  0  0  0  0  0  0  0  0
    4.4934    0.1529   -1.2284 C   0  0  0  0  0  0  0  0  0  0  0  0
   -2.1673    0.7453    2.3364 N   0  0  0  0  0  0  0  0  0  0  0  0
    5.5316    0.8614   -1.6287 N   0  0  0  0  0  0  0  0  0  0  0  0
   -1.3724   -1.2987    0.0892 N   0  0  0  0  0  0  0  0  0  0  0  0
    4.2614   -0.1151    0.0153 N   0  0  0  0  0  0  0  0  0  0  0  0
    7.5122    2.0944   -1.1477 O   0  0  0  0  0  0  0  0  0  0  0  0
    1.0495   -1.7736    2.4779 O   0  0  0  0  0  0  0  0  0  0  0  0
    3.1821   -0.9664    2.8148 O   0  0  0  0  0  0  0  0  0  0  0  0
   -3.6236   -1.4939    0.7400 O   0  0  0  0  0  0  0  0  0  0  0  0
    0.7240    0.5543   -2.2322 O   0  0  0  0  0  0  0  0  0  0  0  0
   -1.0574   -0.6722   -2.6050 O   0  0  0  0  0  0  0  0  0  0  0  0
    3.6859   -0.2887   -2.0740 O   0  0  0  0  0  0  0  0  0  0  0  0
    1.9531   -0.1320   -0.3501 O   0  0  0  0  0  0  0  0  0  0  0  0
   -3.0670    1.2071    1.4239 O   0  0  0  0  0  0  0  0  0  0  0  0
  1  2  2  0
  1  3  1  0
  2  4  1  0
  3  5  2  0
  4  9  2  0
  5  9  1  0
  6  7  2  0
  6 11  1  0
  7 23  1  0
  8  9  1  0
  8 10  1  0
 10 16  1  0
 10 32  1  0
 11 21  2  0
 11 24  1  0
 15 12  1  6
 12 18  1  0
 12 22  1  0
 13 14  1  0
 13 15  1  0
 13 25  1  1
 14 17  1  0
 14 26  1  1
 15 31  1  0
 16 22  2  3
 16 27  1  0
 17 23  1  6
 17 31  1  0
 18 28  2  0
 18 29  1  0
 19 21  1  0
 19 23  1  0
 19 30  2  0
 20 32  1  0
M  END
>  <InChI>  (67) 
InChI=1S/C19H22N4O9/c20-32-10(8-9-4-2-1-3-5-9)16(27)22-12(18(28)29)15-13(25)14(26)17(31-15)23-7-6-11(24)21-19(23)30/h1-7,10,12-15,17,25-26H,8,20H2,(H,22,27)(H,28,29)(H,21,24,30)/t10?,12?,13-,14+,15+,17+/m0/s1

>  <Activity>  (67) 
Inactive

$$$$
P23316_67
     RDKit          3D

 21 22  0  0  1  0  0  0  0  0999 V2000
    5.4625    0.1033   -2.2266 C   0  0  0  0  0  0  0  0  0  0  0  0
    4.9554    1.2898   -4.2996 C   0  0  0  0  0  0  0  0  0  0  0  0
    4.0389   -0.9597   -4.0062 C   0  0  0  0  0  0  0  0  0  0  0  0
    1.0405    1.9325   -1.6575 C   0  0  0  0  0  0  0  0  0  0  0  0
    2.1619    1.3656   -2.1999 C   0  0  0  0  0  0  0  0  0  0  0  0
   -0.2044    1.5464   -1.8291 C   0  0  0  0  0  0  0  0  0  0  0  0
    0.5928   -0.8659    0.9989 C   0  0  0  0  0  0  0  0  0  0  0  0
    0.0020    0.1494    0.3186 C   0  0  0  0  0  0  0  0  0  0  0  0
   -0.1429   -1.5973    1.9152 C   0  0  0  0  0  0  0  0  0  0  0  0
   -3.4886    0.1368    1.6426 C   0  0  0  0  0  0  0  0  0  0  0  0
   -4.1915   -0.7013    2.6052 C   0  0  0  0  0  0  0  0  0  0  0  0
    3.1704    0.8796   -2.6836 C   0  0  0  0  0  0  0  0  0  0  0  0
   -1.2556    2.3625   -1.0990 C   0  0  0  0  0  0  0  0  0  0  0  0
   -2.0533   -0.2497    1.4301 C   0  0  0  0  0  0  0  0  0  0  0  0
   -1.3063    0.4839    0.5040 C   0  0  0  0  0  0  0  0  0  0  0  0
   -1.4716   -1.2649    2.1111 C   0  0  0  0  0  0  0  0  0  0  0  0
   -3.4526   -1.7701    3.2723 C   0  0  0  0  0  0  0  0  0  0  0  0
    4.3959    0.3108   -3.2856 C   0  0  0  0  0  0  0  0  0  0  0  0
   -1.9713    1.4883   -0.2410 N   0  0  0  0  0  0  0  0  0  0  0  0
   -2.2148   -2.0292    3.0499 N   0  0  0  0  0  0  0  0  0  0  0  0
   -4.0673   -2.6108    4.2297 O   0  0  0  0  0  0  0  0  0  0  0  0
  1 18  1  0
  2 18  1  0
  3 18  1  0
  4  5  1  0
  4  6  2  0
  5 12  3  0
  6 13  1  0
  7  8  2  0
  7  9  1  0
  8 15  1  0
  9 16  2  0
 10 11  1  0
 10 14  1  0
 11 17  1  0
 12 18  1  0
 13 19  1  0
 14 15  2  0
 14 16  1  0
 15 19  1  0
 16 20  1  0
 17 20  2  0
 17 21  1  0
M  END
>  <InChI>  (68) 
InChI=1S/C18H22N2O/c1-18(2,3)12-5-4-6-13-19-15-8-7-9-16-14(15)10-11-17(21)20-16/h4,6-9,19H,10-11,13H2,1-3H3,(H,20,21)/b6-4+

>  <Activity>  (68) 
No data

$$$$
