sdf/inactives_sanitized.sdf:1
                    3D
 Schrodinger Suite 2020-1.
 58 60  0  0  1  0            999 V2000
   -0.2838   -9.7320    0.4618 C   0  0  0  0  0  0
    0.7665   -8.8857    0.1116 C   0  0  0  0  0  0
    0.5102   -7.5440   -0.1592 C   0  0  0  0  0  0
   -0.7965   -7.0542   -0.0801 C   0  0  0  0  0  0
   -1.8454   -7.9073    0.2745 C   0  0  0  0  0  0
   -1.5883   -9.2487    0.5458 C   0  0  0  0  0  0
   -1.0758   -5.5883   -0.3765 C   0  0  0  0  0  0
   -1.0126   -4.7004    0.8816 C   0  0  0  0  0  0
   -1.3956   -3.3106    0.6427 N   0  0  0  0  0  0
   -0.6082   -2.3840    0.0634 C   0  0  0  0  0  0
   -1.2235   -1.0090   -0.1036 C   0  0  0  0  0  0
    0.5447   -2.6167   -0.3042 O   0  0  0  0  0  0
   -0.4894    0.2004    0.0080 C   0  0  0  0  0  0
   -1.0942    1.4123   -0.1653 N   0  0  0  0  0  0
   -2.4194    1.4079   -0.4453 C   0  0  0  0  0  0
   -3.2103    0.3174   -0.5720 N   0  0  0  0  0  0
   -2.5932   -0.8781   -0.3986 C   0  0  0  0  0  0
    0.8867    0.1955    0.3152 N   0  0  0  0  0  0
   -3.0536    2.7027   -0.6247 C   0  0  0  0  0  0
   -3.5587    3.7343   -0.7672 N   0  0  0  0  0  0
    1.6305    1.4179    0.6071 C   0  0  0  0  0  0
    3.1283    1.1808    0.8921 C   0  0  0  0  0  0
    3.3771    0.2852    2.1346 C   0  0  0  0  0  0
    4.8906    0.0644    2.3645 C   0  0  0  0  0  0
    5.6685    1.4017    2.5519 C   0  0  0  0  0  0
    5.4012    2.2719    1.2871 C   0  0  0  0  0  0
    3.8935    2.5184    1.0448 C   0  0  0  0  0  0
    5.2284    2.1349    3.8443 C   0  0  0  0  0  0
    7.1772    1.0647    2.5768 C   0  0  0  0  0  0
   -0.0846  -10.7730    0.6704 H   0  0  0  0  0  0
    1.7747   -9.2686    0.0501 H   0  0  0  0  0  0
    1.3254   -6.8884   -0.4301 H   0  0  0  0  0  0
   -2.8572   -7.5336    0.3403 H   0  0  0  0  0  0
   -2.3961   -9.9117    0.8190 H   0  0  0  0  0  0
   -0.3665   -5.2320   -1.1256 H   0  0  0  0  0  0
   -2.0548   -5.5003   -0.8509 H   0  0  0  0  0  0
   -1.6827   -5.1119    1.6378 H   0  0  0  0  0  0
   -0.0321   -4.7781    1.3561 H   0  0  0  0  0  0
   -2.3189   -3.0410    0.9487 H   0  0  0  0  0  0
   -3.2309   -1.7431   -0.5148 H   0  0  0  0  0  0
    1.3230   -0.6882    0.5383 H   0  0  0  0  0  0
    1.5039    2.1275   -0.2120 H   0  0  0  0  0  0
    1.1673    1.9011    1.4689 H   0  0  0  0  0  0
    3.5669    0.6640    0.0357 H   0  0  0  0  0  0
    2.9090    0.7253    3.0153 H   0  0  0  0  0  0
    2.8754   -0.6754    2.0123 H   0  0  0  0  0  0
    5.0410   -0.5822    3.2305 H   0  0  0  0  0  0
    5.2937   -0.4911    1.5153 H   0  0  0  0  0  0
    5.9215    3.2274    1.3715 H   0  0  0  0  0  0
    5.8222    1.7913    0.4014 H   0  0  0  0  0  0
    3.7538    3.1264    0.1498 H   0  0  0  0  0  0
    3.4598    3.1137    1.8487 H   0  0  0  0  0  0
    5.7789    3.0680    3.9703 H   0  0  0  0  0  0
    5.4261    1.5245    4.7262 H   0  0  0  0  0  0
    4.1693    2.3865    3.8627 H   0  0  0  0  0  0
    7.7840    1.9665    2.6692 H   0  0  0  0  0  0
    7.4992    0.5483    1.6710 H   0  0  0  0  0  0
    7.4257    0.4215    3.4220 H   0  0  0  0  0  0
  1  6  2  0  0  0
  1  2  1  0  0  0
  1 30  1  0  0  0
  2  3  2  0  0  0
  2 31  1  0  0  0
  3  4  1  0  0  0
  3 32  1  0  0  0
  4  7  1  0  0  0
  4  5  2  0  0  0
  5  6  1  0  0  0
  5 33  1  0  0  0
  6 34  1  0  0  0
  7  8  1  0  0  0
  7 35  1  0  0  0
  7 36  1  0  0  0
  8  9  1  0  0  0
  8 37  1  0  0  0
  8 38  1  0  0  0
  9 10  1  0  0  0
  9 39  1  0  0  0
 10 11  1  0  0  0
 10 12  2  0  0  0
 11 17  1  0  0  0
 11 13  2  0  0  0
 13 18  1  0  0  0
 13 14  1  0  0  0
 14 15  2  0  0  0
 15 16  1  0  0  0
 15 19  1  0  0  0
 16 17  2  0  0  0
 17 40  1  0  0  0
 18 21  1  0  0  0
 18 41  1  0  0  0
 19 20  3  0  0  0
 21 22  1  0  0  0
 21 42  1  0  0  0
 21 43  1  0  0  0
 22 23  1  0  0  0
 22 27  1  0  0  0
 22 44  1  0  0  0
 23 24  1  0  0  0
 23 45  1  0  0  0
 23 46  1  0  0  0
 24 25  1  0  0  0
 24 47  1  0  0  0
 24 48  1  0  0  0
 25 26  1  0  0  0
 25 28  1  0  0  0
 25 29  1  0  0  0
 26 27  1  0  0  0
 26 49  1  0  0  0
 26 50  1  0  0  0
 27 51  1  0  0  0
 27 52  1  0  0  0
 28 53  1  0  0  0
 28 54  1  0  0  0
 28 55  1  0  0  0
 29 56  1  0  0  0
 29 57  1  0  0  0
 29 58  1  0  0  0
M  END
> <chembl_id>
CHEMBL456756

> <chembl_pref_name>
None

> <s_m_source_file>
sdf/inactives_sanitized.sdf

> <i_m_source_file_index>
1

> <i_lp_mmshare_version>
49012

> <i_m_ct_stereo_status>
1

> <i_f3d_flags>
0

> <s_epik_input>
W2NIXTFbY0hdW2NIXVtjSF1bY0hdYzFbQ0gyXVtDSDJdW05IXUMoPU8pYzJjKG5jKEMjTiluW2NIXTIpW05IXVtDSDJdW0NIXShbQ0gyXVtDSDJdMylbQ0gyXVtDSDJdQzMoW0NIM10pW0NIM10=

> <s_epik_cmdline>
J2VwaWtfcHl0aG9uJywgJy1waHQnLCAnMC41JywgJy1waCcsICc3LjUnLCAnLW50JywgJy1tYScsICcyMDAnLCAnLWltYWUnLCAnPGluZmlsZS5tYWU+JywgJy1vbWFlJywgJzxvdXRmaWxlLm1hZT4n

> <r_lp_tautomer_probability>
1

> <r_epik_Ionization_Penalty>
  0.0000

> <r_epik_Ionization_Penalty_Charging>
  0.0000

> <r_epik_Ionization_Penalty_Neutral>
  0.0000

> <r_epik_State_Penalty>
 -0.0000

> <r_epik_Charging_Adjusted_Penalty>
0

> <i_epik_Tot_Q>
0

> <i_epik_Tot_abs_Q>
0

> <s_lp_Force_Field>
OPLS3e

> <r_lp_Energy>
43.188877

> <b_lp_Chiralities_Consistent>
1

> <s_lp_Variant>
sdf/inactives_sanitized.sdf:1-1

$$$$
sdf/inactives_sanitized.sdf:2
                    3D
 Schrodinger Suite 2020-1.
 53 55  0  0  1  0            999 V2000
    2.8416   -1.8825   -1.5674 C   0  0  0  0  0  0
    2.4640   -1.0431   -0.3128 C   0  0  0  0  0  0
    3.7680   -0.3440    0.1689 C   0  0  0  0  0  0
   -0.7557    1.0228    0.0799 C   0  0  0  0  0  0
   -0.0271   -0.0810   -0.4083 C   0  0  0  0  0  0
   -0.6791   -1.3063   -0.6031 C   0  0  0  0  0  0
   -2.0202   -1.4916   -0.2403 C   0  0  0  0  0  0
   -2.7323   -0.3906    0.2455 C   0  0  0  0  0  0
   -2.1138    0.8475    0.3953 C   0  0  0  0  0  0
    1.4252    0.0419   -0.7801 C   0  0  0  0  0  0
    1.8408    1.0270   -1.3956 O   0  0  0  0  0  0
    1.9155   -1.9000    0.8678 C   0  0  0  0  0  0
    1.7902   -3.2986    0.7800 C   0  0  0  0  0  0
    1.2755   -4.0437    1.8414 C   0  0  0  0  0  0
    0.8877   -3.4062    3.0172 C   0  0  0  0  0  0
    1.0148   -2.0241    3.1321 C   0  0  0  0  0  0
    1.5324   -1.2811    2.0713 C   0  0  0  0  0  0
    0.5229   -1.2310    4.5833 Cl  0  0  0  0  0  0
    1.1123   -5.7556    1.6950 Cl  0  0  0  0  0  0
   -0.0951    2.2294    0.2524 O   0  0  0  0  0  0
   -0.7977    3.3558    0.7662 C   0  0  0  0  0  0
   -2.6886   -2.8458   -0.3333 C   0  0  0  0  0  0
   -3.9149   -2.9545   -0.2685 O   0  0  0  0  0  0
   -1.8650   -3.9089   -0.4262 N   0  0  0  0  0  0
   -2.2763   -5.3122   -0.3235 C   0  0  0  0  0  0
   -2.5134   -5.8566    1.0885 C   0  0  0  0  0  0
   -2.3306   -5.0146    2.1474 N   0  0  0  0  0  0
   -2.5416   -5.5433    3.3791 C   0  0  0  0  0  0
   -2.9108   -6.8198    3.6574 N   0  0  0  0  0  0
   -3.0825   -7.6322    2.5809 C   0  0  0  0  0  0
   -2.8937   -7.1929    1.2668 C   0  0  0  0  0  0
   -2.3488   -4.6527    4.5100 C   0  0  0  0  0  0
   -2.1939   -3.9422    5.4105 N   0  0  0  0  0  0
    1.9882   -2.4242   -1.9775 H   0  0  0  0  0  0
    3.6158   -2.6172   -1.3403 H   0  0  0  0  0  0
    3.2371   -1.2598   -2.3725 H   0  0  0  0  0  0
    3.5842    0.3642    0.9783 H   0  0  0  0  0  0
    4.2606    0.2107   -0.6319 H   0  0  0  0  0  0
    4.4930   -1.0709    0.5385 H   0  0  0  0  0  0
   -0.1217   -2.1359   -1.0131 H   0  0  0  0  0  0
   -3.7712   -0.4852    0.5289 H   0  0  0  0  0  0
   -2.7099    1.6610    0.7793 H   0  0  0  0  0  0
    2.0739   -3.8306   -0.1147 H   0  0  0  0  0  0
    0.4880   -3.9830    3.8381 H   0  0  0  0  0  0
    1.6152   -0.2090    2.1769 H   0  0  0  0  0  0
   -0.1152    4.2027    0.8346 H   0  0  0  0  0  0
   -1.1848    3.1633    1.7679 H   0  0  0  0  0  0
   -1.6203    3.6472    0.1115 H   0  0  0  0  0  0
   -0.8702   -3.7384   -0.4289 H   0  0  0  0  0  0
   -3.1773   -5.4853   -0.9159 H   0  0  0  0  0  0
   -1.4992   -5.9213   -0.7869 H   0  0  0  0  0  0
   -3.3750   -8.6514    2.7865 H   0  0  0  0  0  0
   -3.0336   -7.8597    0.4284 H   0  0  0  0  0  0
  1  2  1  0  0  0
  1 34  1  0  0  0
  1 35  1  0  0  0
  1 36  1  0  0  0
  2  3  1  0  0  0
  2 10  1  0  0  0
  2 12  1  0  0  0
  3 37  1  0  0  0
  3 38  1  0  0  0
  3 39  1  0  0  0
  4  5  2  0  0  0
  4  9  1  0  0  0
  4 20  1  0  0  0
  5  6  1  0  0  0
  5 10  1  0  0  0
  6  7  2  0  0  0
  6 40  1  0  0  0
  7  8  1  0  0  0
  7 22  1  0  0  0
  8  9  2  0  0  0
  8 41  1  0  0  0
  9 42  1  0  0  0
 10 11  2  0  0  0
 12 13  2  0  0  0
 12 17  1  0  0  0
 13 14  1  0  0  0
 13 43  1  0  0  0
 14 15  2  0  0  0
 14 19  1  0  0  0
 15 16  1  0  0  0
 15 44  1  0  0  0
 16 17  2  0  0  0
 16 18  1  0  0  0
 17 45  1  0  0  0
 20 21  1  0  0  0
 21 46  1  0  0  0
 21 47  1  0  0  0
 21 48  1  0  0  0
 22 23  2  0  0  0
 22 24  1  0  0  0
 24 25  1  0  0  0
 24 49  1  0  0  0
 25 26  1  0  0  0
 25 50  1  0  0  0
 25 51  1  0  0  0
 26 27  2  0  0  0
 26 31  1  0  0  0
 27 28  1  0  0  0
 28 29  2  0  0  0
 28 32  1  0  0  0
 29 30  1  0  0  0
 30 31  2  0  0  0
 30 52  1  0  0  0
 31 53  1  0  0  0
 32 33  3  0  0  0
M  END
> <chembl_id>
CHEMBL3354494

> <chembl_pref_name>
None

> <s_m_source_file>
sdf/inactives_sanitized.sdf

> <i_m_source_file_index>
2

> <i_lp_mmshare_version>
49012

> <i_m_ct_stereo_status>
1

> <i_f3d_flags>
0

> <s_epik_input>
W2NIXTFjKENsKVtjSF1jKENsKVtjSF1jMUMoW0NIM10pKFtDSDNdKUMoPU8pYyhjMk9bQ0gzXSlbY0hdYyhbY0hdW2NIXTIpQyg9TylbTkhdW0NIMl1jM25jKEMjTiluW2NIXVtjSF0z

> <s_epik_cmdline>
J2VwaWtfcHl0aG9uJywgJy1waHQnLCAnMC41JywgJy1waCcsICc3LjUnLCAnLW50JywgJy1tYScsICcyMDAnLCAnLWltYWUnLCAnPGluZmlsZS5tYWU+JywgJy1vbWFlJywgJzxvdXRmaWxlLm1hZT4n

> <r_lp_tautomer_probability>
1

> <r_epik_Ionization_Penalty>
  0.0000

> <r_epik_Ionization_Penalty_Charging>
  0.0000

> <r_epik_Ionization_Penalty_Neutral>
  0.0000

> <r_epik_State_Penalty>
 -0.0000

> <r_epik_Charging_Adjusted_Penalty>
0

> <i_epik_Tot_Q>
0

> <i_epik_Tot_abs_Q>
0

> <s_epik_Chemistry_Notes>
This compound contains an electron-poor aromatic ring that is susceptible to covalent hydrolysis at low pH, typically resulting in measured values for nitrogen ring protonation that are around two units higher than predicted values.

> <s_lp_Force_Field>
OPLS3e

> <r_lp_Energy>
55.014177

> <b_lp_Chiralities_Consistent>
1

> <s_lp_Variant>
sdf/inactives_sanitized.sdf:2-1

$$$$
sdf/inactives_sanitized.sdf:3
                    3D
 Schrodinger Suite 2020-1.
 59 61  0  0  1  0            999 V2000
   -0.1609   -0.0398    0.0216 C   0  0  2  0  0  0
   -0.9629   -1.0680   -0.8085 C   0  0  0  0  0  0
   -0.8831    1.3157    0.0242 C   0  0  0  0  0  0
   -4.6039   -1.9294   -2.0143 N   0  0  0  0  0  0
   -0.9986    2.0782   -1.1469 C   0  0  0  0  0  0
   -1.6614    3.3147   -1.1610 C   0  0  0  0  0  0
   -3.7017   -2.3879   -1.4533 C   0  0  0  0  0  0
   -1.7801    4.1072   -2.4234 C   0  0  0  0  0  0
   -1.0837    7.8834   -7.8348 N   0  3  0  0  0  0
   -2.0087    5.5867   -4.8141 C   0  0  0  0  0  0
    1.3234    0.0960   -0.4307 C   0  0  0  0  0  0
   -0.9181   -1.0465   -2.0397 O   0  0  0  0  0  0
   -3.2498    7.2584   -6.1129 O   0  0  0  0  0  0
   -2.1412    6.3548   -6.1354 C   0  0  1  0  0  0
   -2.9133    4.8904   -2.6773 C   0  0  0  0  0  0
   -0.7653    4.0746   -3.3884 C   0  0  0  0  0  0
   -0.8792    4.7992   -4.5710 C   0  0  0  0  0  0
   -3.0306    5.6172   -3.8590 C   0  0  0  0  0  0
   -1.6975   -1.9609   -0.1228 N   0  0  0  0  0  0
   -2.5531   -2.9719   -0.7381 C   0  0  0  0  0  0
   -0.8617    7.1513   -6.5004 C   0  0  0  0  0  0
   -1.4454    1.8071    1.2066 C   0  0  0  0  0  0
   -2.2118    3.7783    0.0428 C   0  0  0  0  0  0
   -2.1056    3.0332    1.2158 C   0  0  0  0  0  0
   -2.3544    8.7477   -7.8256 C   0  0  0  0  0  0
    2.1846   -1.1953   -0.3998 C   0  0  0  0  0  0
   -3.5418    7.8881   -7.3575 C   0  0  0  0  0  0
    2.2752   -1.8255    1.0037 C   0  0  0  0  0  0
    3.5907   -0.9284   -0.9680 C   0  0  0  0  0  0
   -0.1432   -0.3874    1.0561 H   0  0  0  0  0  0
   -0.5793    1.6887   -2.0629 H   0  0  0  0  0  0
   -0.2808    8.4589   -8.0468 H   0  0  0  0  0  0
    1.3561    0.5046   -1.4422 H   0  0  0  0  0  0
    1.8083    0.8442    0.1992 H   0  0  0  0  0  0
   -2.3389    5.5925   -6.8925 H   0  0  0  0  0  0
   -3.7251    4.9280   -1.9659 H   0  0  0  0  0  0
    0.1259    3.4857   -3.2288 H   0  0  0  0  0  0
   -0.0830    4.7334   -5.2972 H   0  0  0  0  0  0
   -3.9269    6.1972   -4.0218 H   0  0  0  0  0  0
   -1.7328   -1.8924    0.8837 H   0  0  0  0  0  0
   -2.9395   -3.6306    0.0397 H   0  0  0  0  0  0
   -1.9831   -3.5939   -1.4306 H   0  0  0  0  0  0
    0.0117    6.5239   -6.6773 H   0  0  0  0  0  0
   -0.6242    7.9294   -5.7731 H   0  0  0  0  0  0
   -1.3734    1.2417    2.1243 H   0  0  0  0  0  0
   -2.7223    4.7295    0.0816 H   0  0  0  0  0  0
   -2.5352    3.4080    2.1331 H   0  0  0  0  0  0
   -2.1503    9.5796   -7.1501 H   0  0  0  0  0  0
   -2.4761    9.1268   -8.8408 H   0  0  0  0  0  0
    1.7195   -1.9317   -1.0567 H   0  0  0  0  0  0
   -3.7998    7.1368   -8.1064 H   0  0  0  0  0  0
   -4.4259    8.5135   -7.2309 H   0  0  0  0  0  0
    2.6859   -1.1235    1.7305 H   0  0  0  0  0  0
    2.9158   -2.7082    0.9981 H   0  0  0  0  0  0
    1.2989   -2.1483    1.3645 H   0  0  0  0  0  0
    4.1340   -0.2001   -0.3643 H   0  0  0  0  0  0
    3.5394   -0.5414   -1.9864 H   0  0  0  0  0  0
    4.1862   -1.8415   -1.0000 H   0  0  0  0  0  0
   -1.1608    7.1978   -8.5729 H   0  0  0  0  0  0
  1  2  1  0  0  0
  1  3  1  0  0  0
  1 11  1  0  0  0
  1 30  1  0  0  0
  2 12  2  0  0  0
  2 19  1  0  0  0
  3  5  2  0  0  0
  3 22  1  0  0  0
  4  7  3  0  0  0
  5  6  1  0  0  0
  5 31  1  0  0  0
  6  8  1  0  0  0
  6 23  2  0  0  0
  7 20  1  0  0  0
  8 15  2  0  0  0
  8 16  1  0  0  0
  9 21  1  0  0  0
  9 25  1  0  0  0
  9 32  1  0  0  0
  9 59  1  0  0  0
 10 17  1  0  0  0
 10 14  1  0  0  0
 10 18  2  0  0  0
 11 26  1  0  0  0
 11 33  1  0  0  0
 11 34  1  0  0  0
 13 14  1  0  0  0
 13 27  1  0  0  0
 14 21  1  0  0  0
 14 35  1  0  0  0
 15 18  1  0  0  0
 15 36  1  0  0  0
 16 17  2  0  0  0
 16 37  1  0  0  0
 17 38  1  0  0  0
 18 39  1  0  0  0
 19 20  1  0  0  0
 19 40  1  0  0  0
 20 41  1  0  0  0
 20 42  1  0  0  0
 21 43  1  0  0  0
 21 44  1  0  0  0
 22 24  2  0  0  0
 22 45  1  0  0  0
 23 24  1  0  0  0
 23 46  1  0  0  0
 24 47  1  0  0  0
 25 27  1  0  0  0
 25 48  1  0  0  0
 25 49  1  0  0  0
 26 28  1  0  0  0
 26 29  1  0  0  0
 26 50  1  0  0  0
 27 51  1  0  0  0
 27 52  1  0  0  0
 28 53  1  0  0  0
 28 54  1  0  0  0
 28 55  1  0  0  0
 29 56  1  0  0  0
 29 57  1  0  0  0
 29 58  1  0  0  0
M  CHG  1   9   1
M  END
> <chembl_id>
CHEMBL333716

> <chembl_pref_name>
None

> <s_m_source_file>
sdf/inactives_sanitized.sdf

> <i_m_source_file_index>
3

> <i_lp_mmshare_version>
49012

> <i_m_ct_stereo_status>
1

> <i_f3d_flags>
0

> <s_epik_input>
TiNDW0NIMl1bTkhdQyg9TylbQ0BASF0oW0NIMl1bQ0hdKFtDSDNdKVtDSDNdKWMxW2NIXWMoW2NIXVtjSF1bY0hdMSktYzJbY0hdW2NIXWMoW2NIXVtjSF0yKVtDQEhdM09bQ0gyXVtDSDJdW05IXVtDSDJdMw==

> <s_epik_cmdline>
J2VwaWtfcHl0aG9uJywgJy1waHQnLCAnMC41JywgJy1waCcsICc3LjUnLCAnLW50JywgJy1tYScsICcyMDAnLCAnLWltYWUnLCAnPGluZmlsZS5tYWU+JywgJy1vbWFlJywgJzxvdXRmaWxlLm1hZT4n

> <r_epik_Ionization_Penalty>
  0.0248

> <r_epik_Ionization_Penalty_Charging>
  0.0248

> <r_epik_Ionization_Penalty_Neutral>
  0.0000

> <r_epik_State_Penalty>
  0.0201

> <r_epik_Charging_Adjusted_Penalty>
0.0449237724092074

> <i_epik_Tot_Q>
1

> <i_epik_Tot_abs_Q>
1

> <s_lp_Force_Field>
OPLS3e

> <r_lp_Energy>
36.91102

> <b_lp_Chiralities_Consistent>
1

> <s_lp_Variant>
sdf/inactives_sanitized.sdf:3-1

$$$$
sdf/inactives_sanitized.sdf:4
                    3D
 Schrodinger Suite 2020-1.
 57 59  0  0  1  0            999 V2000
   -0.4629   -3.0453    0.7594 C   0  0  0  0  0  0
   -0.0124   -4.3630    0.9031 C   0  0  0  0  0  0
    0.6402   -4.7307    2.0855 C   0  0  0  0  0  0
    0.8409   -3.7978    3.1018 C   0  0  0  0  0  0
    0.3975   -2.4859    2.9432 C   0  0  0  0  0  0
   -0.2488   -2.0960    1.7662 C   0  0  0  0  0  0
   -0.7165   -0.6496    1.5949 C   0  0  0  0  0  0
   -0.2819    0.0030    0.2509 C   0  0  2  0  0  0
    1.1731   -0.0231    0.0636 N   0  0  0  0  0  0
   -0.7707    1.4624    0.1733 C   0  0  0  0  0  0
   -0.2755    2.3158    0.9120 O   0  0  0  0  0  0
   -1.7642    1.7159   -0.6948 N   0  0  0  0  0  0
   -2.3211    3.0442   -0.9307 C   0  0  0  0  0  0
   -1.3522    3.9709   -1.5426 C   0  0  0  0  0  0
   -0.5915    4.6983   -2.0231 N   0  0  0  0  0  0
    1.8474   -0.8010   -0.8035 C   0  0  0  0  0  0
    1.3122   -1.6043   -1.5691 O   0  0  0  0  0  0
    3.2819   -0.6210   -0.7573 C   0  0  0  0  0  0
   -0.2180   -5.3564   -0.1930 C   0  0  0  0  0  0
    0.1086   -6.6278   -0.2131 N   0  0  0  0  0  0
   -0.2804   -7.1116   -1.4587 N   0  0  0  0  0  0
   -0.8075   -6.0937   -2.0906 C   0  0  0  0  0  0
   -0.8015   -4.9561   -1.3532 O   0  0  0  0  0  0
    4.0712    0.0282    0.1873 C   0  0  0  0  0  0
    5.4124   -0.1286   -0.1933 C   0  0  0  0  0  0
    5.4765   -0.8577   -1.2891 N   0  0  0  0  0  0
    4.2129   -1.1587   -1.6245 N   0  0  0  0  0  0
    3.9973   -1.9957   -2.8012 C   0  0  0  0  0  0
    6.6677    0.4191    0.5046 C   0  0  0  0  0  0
    6.5294    1.9505    0.6675 C   0  0  0  0  0  0
    7.9676    0.1306   -0.2914 C   0  0  0  0  0  0
    6.7908   -0.2299    1.9016 C   0  0  0  0  0  0
   -0.9730   -2.7532   -0.1465 H   0  0  0  0  0  0
    0.9968   -5.7414    2.2226 H   0  0  0  0  0  0
    1.3452   -4.0913    4.0106 H   0  0  0  0  0  0
    0.5671   -1.7725    3.7366 H   0  0  0  0  0  0
   -0.3271   -0.0548    2.4245 H   0  0  0  0  0  0
   -1.8028   -0.6337    1.6987 H   0  0  0  0  0  0
   -0.7608   -0.5496   -0.5600 H   0  0  0  0  0  0
    1.6924    0.6215    0.6416 H   0  0  0  0  0  0
   -2.1073    0.9680   -1.2803 H   0  0  0  0  0  0
   -3.1735    2.9561   -1.6044 H   0  0  0  0  0  0
   -2.6908    3.4811   -0.0016 H   0  0  0  0  0  0
   -1.2317   -6.0356   -3.0821 H   0  0  0  0  0  0
    3.7218    0.5632    1.0584 H   0  0  0  0  0  0
    3.2906   -1.5045   -3.4704 H   0  0  0  0  0  0
    3.5918   -2.9580   -2.4876 H   0  0  0  0  0  0
    4.9309   -2.1636   -3.3412 H   0  0  0  0  0  0
    7.3937    2.3831    1.1734 H   0  0  0  0  0  0
    5.6467    2.2183    1.2498 H   0  0  0  0  0  0
    6.4341    2.4460   -0.2999 H   0  0  0  0  0  0
    7.9318    0.5698   -1.2896 H   0  0  0  0  0  0
    8.1315   -0.9406   -0.4185 H   0  0  0  0  0  0
    8.8474    0.5358    0.2105 H   0  0  0  0  0  0
    7.6537    0.1512    2.4498 H   0  0  0  0  0  0
    6.9007   -1.3130    1.8284 H   0  0  0  0  0  0
    5.9077   -0.0404    2.5135 H   0  0  0  0  0  0
  1  6  2  0  0  0
  1  2  1  0  0  0
  1 33  1  0  0  0
  2 19  1  0  0  0
  2  3  2  0  0  0
  3  4  1  0  0  0
  3 34  1  0  0  0
  4  5  2  0  0  0
  4 35  1  0  0  0
  5  6  1  0  0  0
  5 36  1  0  0  0
  6  7  1  0  0  0
  7  8  1  0  0  0
  7 37  1  0  0  0
  7 38  1  0  0  0
  8  9  1  0  0  0
  8 10  1  0  0  0
  8 39  1  0  0  0
  9 16  1  0  0  0
  9 40  1  0  0  0
 10 11  2  0  0  0
 10 12  1  0  0  0
 12 13  1  0  0  0
 12 41  1  0  0  0
 13 14  1  0  0  0
 13 42  1  0  0  0
 13 43  1  0  0  0
 14 15  3  0  0  0
 16 17  2  0  0  0
 16 18  1  0  0  0
 18 24  2  0  0  0
 18 27  1  0  0  0
 19 20  2  0  0  0
 19 23  1  0  0  0
 20 21  1  0  0  0
 21 22  2  0  0  0
 22 23  1  0  0  0
 22 44  1  0  0  0
 24 25  1  0  0  0
 24 45  1  0  0  0
 25 26  2  0  0  0
 25 29  1  0  0  0
 26 27  1  0  0  0
 27 28  1  0  0  0
 28 46  1  0  0  0
 28 47  1  0  0  0
 28 48  1  0  0  0
 29 30  1  0  0  0
 29 31  1  0  0  0
 29 32  1  0  0  0
 30 49  1  0  0  0
 30 50  1  0  0  0
 30 51  1  0  0  0
 31 52  1  0  0  0
 31 53  1  0  0  0
 31 54  1  0  0  0
 32 55  1  0  0  0
 32 56  1  0  0  0
 32 57  1  0  0  0
M  END
> <chembl_id>
CHEMBL562915

> <chembl_pref_name>
None

> <i_m_ct_stereo_status>
1

> <s_m_source_file>
sdf/inactives_sanitized.sdf

> <i_m_source_file_index>
4

> <i_lp_mmshare_version>
49012

> <i_f3d_flags>
0

> <s_epik_input>
bzFbY0hdbm5jMS1jMltjSF1jKFtjSF1bY0hdW2NIXTIpW0NIMl1bQ0BASF0oQyg9TylbTkhdW0NIMl1DI04pW05IXUMoPU8pYzNbY0hdYyhDKFtDSDNdKShbQ0gzXSlbQ0gzXSlubjNbQ0gzXQ==

> <s_epik_cmdline>
J2VwaWtfcHl0aG9uJywgJy1waHQnLCAnMC41JywgJy1waCcsICc3LjUnLCAnLW50JywgJy1tYScsICcyMDAnLCAnLWltYWUnLCAnPGluZmlsZS5tYWU+JywgJy1vbWFlJywgJzxvdXRmaWxlLm1hZT4n

> <r_lp_tautomer_probability>
1

> <r_epik_Ionization_Penalty>
  0.0000

> <r_epik_Ionization_Penalty_Charging>
  0.0000

> <r_epik_Ionization_Penalty_Neutral>
  0.0000

> <r_epik_State_Penalty>
 -0.0000

> <r_epik_Charging_Adjusted_Penalty>
0

> <i_epik_Tot_Q>
0

> <i_epik_Tot_abs_Q>
0

> <s_lp_Force_Field>
OPLS3e

> <r_lp_Energy>
21.872876

> <b_lp_Chiralities_Consistent>
1

> <s_lp_Variant>
sdf/inactives_sanitized.sdf:4-1

$$$$
sdf/inactives_sanitized.sdf:5
                    3D
 Schrodinger Suite 2020-1.
 46 47  0  0  1  0            999 V2000
   -0.0686   -3.0674    0.2788 C   0  0  0  0  0  0
    0.4372   -4.3233    0.6167 C   0  0  0  0  0  0
    0.9796   -4.5386    1.8838 C   0  0  0  0  0  0
    1.0131   -3.4991    2.8126 C   0  0  0  0  0  0
    0.5090   -2.2430    2.4738 C   0  0  0  0  0  0
   -0.0272   -2.0142    1.2013 C   0  0  0  0  0  0
   -0.5624   -0.6287    0.8359 C   0  0  0  0  0  0
    0.0113   -0.0654   -0.4948 C   0  0  2  0  0  0
    1.4774   -0.0093   -0.4728 N   0  0  0  0  0  0
   -0.5546    1.3435   -0.7642 C   0  0  0  0  0  0
   -0.0968    2.3189   -0.1650 O   0  0  0  0  0  0
   -1.5725    1.4187   -1.6380 N   0  0  0  0  0  0
   -2.2812    2.6530   -1.9617 C   0  0  0  0  0  0
   -3.0246    3.2063   -0.8155 C   0  0  0  0  0  0
   -3.6085    3.6403    0.0843 N   0  0  0  0  0  0
    2.3108   -0.7468   -1.2284 C   0  0  0  0  0  0
    1.9321   -1.6001   -2.0333 O   0  0  0  0  0  0
    3.7850   -0.5202   -0.9848 C   0  0  0  0  0  0
    0.3933   -5.6090   -0.5338 Cl  0  0  0  0  0  0
    4.3785    0.7678   -0.9115 C   0  0  0  0  0  0
    5.7586    0.8751   -0.6326 C   0  0  0  0  0  0
    6.5280   -0.2767   -0.4524 C   0  0  0  0  0  0
    5.9501   -1.5356   -0.5534 C   0  0  0  0  0  0
    4.5912   -1.6545   -0.8187 C   0  0  0  0  0  0
    3.5672    2.0428   -1.1799 C   0  0  0  0  0  0
    6.4538    2.2256   -0.5006 C   0  0  0  0  0  0
   -0.4874   -2.9151   -0.7051 H   0  0  0  0  0  0
    1.3731   -5.5090    2.1489 H   0  0  0  0  0  0
    1.4320   -3.6659    3.7940 H   0  0  0  0  0  0
    0.5457   -1.4462    3.2025 H   0  0  0  0  0  0
   -1.6513   -0.6909    0.7926 H   0  0  0  0  0  0
   -0.3352    0.0636    1.6499 H   0  0  0  0  0  0
   -0.3234   -0.7184   -1.3036 H   0  0  0  0  0  0
    1.8731    0.6660    0.1651 H   0  0  0  0  0  0
   -1.9224    0.5696   -2.0584 H   0  0  0  0  0  0
   -1.5897    3.4109   -2.3338 H   0  0  0  0  0  0
   -2.9958    2.4516   -2.7598 H   0  0  0  0  0  0
    7.5842   -0.2008   -0.2378 H   0  0  0  0  0  0
    6.5542   -2.4207   -0.4184 H   0  0  0  0  0  0
    4.1645   -2.6464   -0.8777 H   0  0  0  0  0  0
    4.1758    2.8413   -1.6025 H   0  0  0  0  0  0
    3.1042    2.4060   -0.2620 H   0  0  0  0  0  0
    2.7872    1.8750   -1.9227 H   0  0  0  0  0  0
    7.4461    2.1361   -0.0563 H   0  0  0  0  0  0
    5.8784    2.8891    0.1460 H   0  0  0  0  0  0
    6.5500    2.7045   -1.4754 H   0  0  0  0  0  0
  1  2  2  0  0  0
  1  6  1  0  0  0
  1 27  1  0  0  0
  2 19  1  0  0  0
  2  3  1  0  0  0
  3  4  2  0  0  0
  3 28  1  0  0  0
  4  5  1  0  0  0
  4 29  1  0  0  0
  5  6  2  0  0  0
  5 30  1  0  0  0
  6  7  1  0  0  0
  7  8  1  0  0  0
  7 31  1  0  0  0
  7 32  1  0  0  0
  8  9  1  0  0  0
  8 10  1  0  0  0
  8 33  1  0  0  0
  9 16  1  0  0  0
  9 34  1  0  0  0
 10 11  2  0  0  0
 10 12  1  0  0  0
 12 13  1  0  0  0
 12 35  1  0  0  0
 13 14  1  0  0  0
 13 36  1  0  0  0
 13 37  1  0  0  0
 14 15  3  0  0  0
 16 17  2  0  0  0
 16 18  1  0  0  0
 18 20  2  0  0  0
 18 24  1  0  0  0
 20 21  1  0  0  0
 20 25  1  0  0  0
 21 22  2  0  0  0
 21 26  1  0  0  0
 22 23  1  0  0  0
 22 38  1  0  0  0
 23 24  2  0  0  0
 23 39  1  0  0  0
 24 40  1  0  0  0
 25 41  1  0  0  0
 25 42  1  0  0  0
 25 43  1  0  0  0
 26 44  1  0  0  0
 26 45  1  0  0  0
 26 46  1  0  0  0
M  END
> <chembl_id>
CHEMBL562325

> <chembl_pref_name>
None

> <i_m_ct_stereo_status>
1

> <s_m_source_file>
sdf/inactives_sanitized.sdf

> <i_m_source_file_index>
5

> <i_lp_mmshare_version>
49012

> <i_f3d_flags>
0

> <s_epik_input>
W2NIXTFbY0hdW2NIXWMoW2NIXWMxQ2wpW0NIMl1bQ0BASF0oQyg9TylbTkhdW0NIMl1DI04pW05IXUMoPU8pYzJjKFtDSDNdKWMoW0NIM10pW2NIXVtjSF1bY0hdMg==

> <s_epik_cmdline>
J2VwaWtfcHl0aG9uJywgJy1waHQnLCAnMC41JywgJy1waCcsICc3LjUnLCAnLW50JywgJy1tYScsICcyMDAnLCAnLWltYWUnLCAnPGluZmlsZS5tYWU+JywgJy1vbWFlJywgJzxvdXRmaWxlLm1hZT4n

> <r_lp_tautomer_probability>
1

> <r_epik_Ionization_Penalty>
  0.0000

> <r_epik_Ionization_Penalty_Charging>
  0.0000

> <r_epik_Ionization_Penalty_Neutral>
  0.0000

> <r_epik_State_Penalty>
 -0.0000

> <r_epik_Charging_Adjusted_Penalty>
0

> <i_epik_Tot_Q>
0

> <i_epik_Tot_abs_Q>
0

> <s_lp_Force_Field>
OPLS3e

> <r_lp_Energy>
25.400804

> <b_lp_Chiralities_Consistent>
1

> <s_lp_Variant>
sdf/inactives_sanitized.sdf:5-1

$$$$
sdf/inactives_sanitized.sdf:6
                    3D
 Schrodinger Suite 2020-1.
 52 53  0  0  1  0            999 V2000
   -0.1417   -3.0689    0.1932 C   0  0  0  0  0  0
    0.3348   -4.3630    0.4066 C   0  0  0  0  0  0
    0.9087   -4.7013    1.6322 C   0  0  0  0  0  0
    1.0039   -3.7461    2.6438 C   0  0  0  0  0  0
    0.5299   -2.4515    2.4293 C   0  0  0  0  0  0
   -0.0384   -2.0999    1.1993 C   0  0  0  0  0  0
   -0.5451   -0.6752    0.9707 C   0  0  0  0  0  0
    0.0105   -0.0082   -0.3196 C   0  0  2  0  0  0
    1.4774    0.0387   -0.3252 N   0  0  0  0  0  0
   -0.5493    1.4207   -0.4643 C   0  0  0  0  0  0
   -0.1252    2.3248    0.2583 O   0  0  0  0  0  0
   -1.5264    1.5901   -1.3707 N   0  0  0  0  0  0
   -2.2301    2.8507   -1.5852 C   0  0  0  0  0  0
   -3.0563    3.2484   -0.4312 C   0  0  0  0  0  0
   -3.7054    3.5604    0.4746 N   0  0  0  0  0  0
    2.2893   -0.6980   -1.1054 C   0  0  0  0  0  0
    1.8935   -1.5165   -1.9368 O   0  0  0  0  0  0
    3.6954   -0.4546   -0.8766 C   0  0  0  0  0  0
    0.2159   -5.5431   -0.8471 Cl  0  0  0  0  0  0
    4.7458   -0.8497   -1.6814 N   0  0  0  0  0  0
    5.9456   -0.5598   -1.1565 N   0  0  0  0  0  0
    5.7186    0.0178    0.0062 C   0  0  0  0  0  0
    4.3359    0.0850    0.2342 C   0  0  0  0  0  0
    4.7096   -1.5450   -2.9644 C   0  0  0  0  0  0
    6.8562    0.4998    0.9209 C   0  0  0  0  0  0
    6.7030    2.0194    1.1587 C   0  0  0  0  0  0
    8.2609    0.2366    0.3170 C   0  0  0  0  0  0
    6.7606   -0.2361    2.2769 C   0  0  0  0  0  0
   -0.5864   -2.8210   -0.7593 H   0  0  0  0  0  0
    1.2787   -5.7020    1.8015 H   0  0  0  0  0  0
    1.4466   -4.0083    3.5936 H   0  0  0  0  0  0
    0.6138   -1.7218    3.2215 H   0  0  0  0  0  0
   -1.6359   -0.7090    0.9498 H   0  0  0  0  0  0
   -0.2830   -0.0628    1.8365 H   0  0  0  0  0  0
   -0.3408   -0.5903   -1.1742 H   0  0  0  0  0  0
    1.8892    0.7008    0.3161 H   0  0  0  0  0  0
   -1.8517    0.7921   -1.8970 H   0  0  0  0  0  0
   -2.8867    2.7472   -2.4491 H   0  0  0  0  0  0
   -1.5277    3.6548   -1.8107 H   0  0  0  0  0  0
    3.8604    0.4842    1.1185 H   0  0  0  0  0  0
    3.9875   -1.0598   -3.6216 H   0  0  0  0  0  0
    4.4133   -2.5816   -2.8009 H   0  0  0  0  0  0
    5.6878   -1.5251   -3.4486 H   0  0  0  0  0  0
    7.4799    2.4054    1.8204 H   0  0  0  0  0  0
    5.7408    2.2626    1.6122 H   0  0  0  0  0  0
    6.7633    2.5763    0.2225 H   0  0  0  0  0  0
    8.3874    0.7446   -0.6403 H   0  0  0  0  0  0
    8.4285   -0.8269    0.1395 H   0  0  0  0  0  0
    9.0565    0.5852    0.9771 H   0  0  0  0  0  0
    7.5415    0.0854    2.9675 H   0  0  0  0  0  0
    6.8577   -1.3156    2.1514 H   0  0  0  0  0  0
    5.8018   -0.0579    2.7662 H   0  0  0  0  0  0
  1  6  2  0  0  0
  1  2  1  0  0  0
  1 29  1  0  0  0
  2 19  1  0  0  0
  2  3  2  0  0  0
  3  4  1  0  0  0
  3 30  1  0  0  0
  4  5  2  0  0  0
  4 31  1  0  0  0
  5  6  1  0  0  0
  5 32  1  0  0  0
  6  7  1  0  0  0
  7  8  1  0  0  0
  7 33  1  0  0  0
  7 34  1  0  0  0
  8  9  1  0  0  0
  8 10  1  0  0  0
  8 35  1  0  0  0
  9 16  1  0  0  0
  9 36  1  0  0  0
 10 11  2  0  0  0
 10 12  1  0  0  0
 12 13  1  0  0  0
 12 37  1  0  0  0
 13 14  1  0  0  0
 13 38  1  0  0  0
 13 39  1  0  0  0
 14 15  3  0  0  0
 16 17  2  0  0  0
 16 18  1  0  0  0
 18 20  1  0  0  0
 18 23  2  0  0  0
 20 21  1  0  0  0
 20 24  1  0  0  0
 21 22  2  0  0  0
 22 23  1  0  0  0
 22 25  1  0  0  0
 23 40  1  0  0  0
 24 41  1  0  0  0
 24 42  1  0  0  0
 24 43  1  0  0  0
 25 26  1  0  0  0
 25 27  1  0  0  0
 25 28  1  0  0  0
 26 44  1  0  0  0
 26 45  1  0  0  0
 26 46  1  0  0  0
 27 47  1  0  0  0
 27 48  1  0  0  0
 27 49  1  0  0  0
 28 50  1  0  0  0
 28 51  1  0  0  0
 28 52  1  0  0  0
M  END
> <chembl_id>
CHEMBL564131

> <chembl_pref_name>
None

> <i_m_ct_stereo_status>
1

> <s_m_source_file>
sdf/inactives_sanitized.sdf

> <i_m_source_file_index>
6

> <i_lp_mmshare_version>
49012

> <i_f3d_flags>
0

> <s_epik_input>
W2NIXTFbY0hdW2NIXWMoW2NIXWMxQ2wpW0NIMl1bQ0BASF0oQyg9TylbTkhdW0NIMl1DI04pW05IXUMoPU8pYzJuKFtDSDNdKW5jKFtjSF0yKUMoW0NIM10pKFtDSDNdKVtDSDNd

> <s_epik_cmdline>
J2VwaWtfcHl0aG9uJywgJy1waHQnLCAnMC41JywgJy1waCcsICc3LjUnLCAnLW50JywgJy1tYScsICcyMDAnLCAnLWltYWUnLCAnPGluZmlsZS5tYWU+JywgJy1vbWFlJywgJzxvdXRmaWxlLm1hZT4n

> <r_lp_tautomer_probability>
1

> <r_epik_Ionization_Penalty>
  0.0000

> <r_epik_Ionization_Penalty_Charging>
  0.0000

> <r_epik_Ionization_Penalty_Neutral>
  0.0000

> <r_epik_State_Penalty>
 -0.0000

> <r_epik_Charging_Adjusted_Penalty>
0

> <i_epik_Tot_Q>
0

> <i_epik_Tot_abs_Q>
0

> <s_lp_Force_Field>
OPLS3e

> <r_lp_Energy>
17.919885

> <b_lp_Chiralities_Consistent>
1

> <s_lp_Variant>
sdf/inactives_sanitized.sdf:6-1

$$$$
sdf/inactives_sanitized.sdf:7
                    3D
 Schrodinger Suite 2020-1.
 44 45  0  0  1  0            999 V2000
   -2.4203   -1.8758    1.6498 C   0  0  0  0  0  0
   -3.7946   -2.0823    1.7811 C   0  0  0  0  0  0
   -4.6869   -1.0591    1.4607 C   0  0  0  0  0  0
   -4.2050    0.1699    1.0122 C   0  0  0  0  0  0
   -2.8317    0.3765    0.8821 C   0  0  0  0  0  0
   -1.9274   -0.6483    1.1915 C   0  0  0  0  0  0
   -0.4174   -0.4423    1.0480 C   0  0  0  0  0  0
    0.0097    0.2037   -0.3001 C   0  0  2  0  0  0
   -0.4943   -0.5585   -1.4492 N   0  0  0  0  0  0
    1.5466    0.3037   -0.3788 C   0  0  0  0  0  0
    2.2195   -0.7033   -0.6079 O   0  0  0  0  0  0
    2.0777    1.5149   -0.1437 N   0  0  0  0  0  0
    3.5119    1.7828   -0.1020 C   0  0  0  0  0  0
    4.1915    1.1014    1.0142 C   0  0  0  0  0  0
    4.7246    0.5665    1.8906 N   0  0  0  0  0  0
   -1.2613   -0.0847   -2.4508 C   0  0  0  0  0  0
   -1.6137    1.0974   -2.4976 O   0  0  0  0  0  0
   -1.6335   -1.0594   -3.4760 C   0  0  0  0  0  0
   -4.3897   -3.6038    2.3381 Cl  0  0  0  0  0  0
   -1.2613   -2.5429   -3.2675 C   0  0  0  0  0  0
   -2.0775   -3.4776   -4.1851 C   0  0  0  0  0  0
   -2.0970   -2.9658   -5.6333 C   0  0  0  0  0  0
   -2.7155   -1.5566   -5.7436 C   0  0  0  0  0  0
   -2.2818   -0.6500   -4.5966 C   0  0  0  0  0  0
   -1.7380   -2.6754    1.9000 H   0  0  0  0  0  0
   -5.7513   -1.2147    1.5598 H   0  0  0  0  0  0
   -4.8955    0.9630    0.7658 H   0  0  0  0  0  0
   -2.4791    1.3368    0.5369 H   0  0  0  0  0  0
   -0.0766    0.1607    1.8915 H   0  0  0  0  0  0
    0.0764   -1.4115    1.1503 H   0  0  0  0  0  0
   -0.3942    1.2179   -0.3179 H   0  0  0  0  0  0
   -0.2219   -1.5302   -1.4705 H   0  0  0  0  0  0
    1.4640    2.2850    0.0797 H   0  0  0  0  0  0
    3.9888    1.4888   -1.0383 H   0  0  0  0  0  0
    3.6686    2.8551    0.0145 H   0  0  0  0  0  0
   -0.1986   -2.6756   -3.4777 H   0  0  0  0  0  0
   -1.3991   -2.8615   -2.2327 H   0  0  0  0  0  0
   -1.6624   -4.4856   -4.1498 H   0  0  0  0  0  0
   -3.1005   -3.5556   -3.8135 H   0  0  0  0  0  0
   -1.0753   -2.9437   -6.0162 H   0  0  0  0  0  0
   -2.6435   -3.6610   -6.2717 H   0  0  0  0  0  0
   -2.4538   -1.1127   -6.7046 H   0  0  0  0  0  0
   -3.8038   -1.6253   -5.7357 H   0  0  0  0  0  0
   -2.5294    0.3971   -4.7075 H   0  0  0  0  0  0
  1  6  2  0  0  0
  1  2  1  0  0  0
  1 25  1  0  0  0
  2 19  1  0  0  0
  2  3  2  0  0  0
  3  4  1  0  0  0
  3 26  1  0  0  0
  4  5  2  0  0  0
  4 27  1  0  0  0
  5  6  1  0  0  0
  5 28  1  0  0  0
  6  7  1  0  0  0
  7  8  1  0  0  0
  7 29  1  0  0  0
  7 30  1  0  0  0
  8  9  1  0  0  0
  8 10  1  0  0  0
  8 31  1  0  0  0
  9 16  1  0  0  0
  9 32  1  0  0  0
 10 12  1  0  0  0
 10 11  2  0  0  0
 12 13  1  0  0  0
 12 33  1  0  0  0
 13 14  1  0  0  0
 13 34  1  0  0  0
 13 35  1  0  0  0
 14 15  3  0  0  0
 16 17  2  0  0  0
 16 18  1  0  0  0
 18 20  1  0  0  0
 18 24  2  0  0  0
 20 21  1  0  0  0
 20 36  1  0  0  0
 20 37  1  0  0  0
 21 22  1  0  0  0
 21 38  1  0  0  0
 21 39  1  0  0  0
 22 23  1  0  0  0
 22 40  1  0  0  0
 22 41  1  0  0  0
 23 24  1  0  0  0
 23 42  1  0  0  0
 23 43  1  0  0  0
 24 44  1  0  0  0
M  END
> <chembl_id>
CHEMBL561725

> <chembl_pref_name>
None

> <i_m_ct_stereo_status>
1

> <s_m_source_file>
sdf/inactives_sanitized.sdf

> <i_m_source_file_index>
7

> <i_lp_mmshare_version>
49012

> <i_f3d_flags>
0

> <s_epik_input>
W2NIXTFbY0hdW2NIXWMoW2NIXWMxQ2wpW0NIMl1bQ0BASF0oQyg9TylbTkhdW0NIMl1DI04pW05IXUMoPU8pQzI9W0NIXVtDSDJdW0NIMl1bQ0gyXVtDSDJdMg==

> <s_epik_cmdline>
J2VwaWtfcHl0aG9uJywgJy1waHQnLCAnMC41JywgJy1waCcsICc3LjUnLCAnLW50JywgJy1tYScsICcyMDAnLCAnLWltYWUnLCAnPGluZmlsZS5tYWU+JywgJy1vbWFlJywgJzxvdXRmaWxlLm1hZT4n

> <r_lp_tautomer_probability>
1

> <r_epik_Ionization_Penalty>
  0.0000

> <r_epik_Ionization_Penalty_Charging>
  0.0000

> <r_epik_Ionization_Penalty_Neutral>
  0.0000

> <r_epik_State_Penalty>
 -0.0000

> <r_epik_Charging_Adjusted_Penalty>
0

> <i_epik_Tot_Q>
0

> <i_epik_Tot_abs_Q>
0

> <s_lp_Force_Field>
OPLS3e

> <r_lp_Energy>
23.432363

> <b_lp_Chiralities_Consistent>
1

> <s_lp_Variant>
sdf/inactives_sanitized.sdf:7-1

$$$$
sdf/inactives_sanitized.sdf:8
                    3D
 Schrodinger Suite 2020-1.
 54 57  0  0  1  0            999 V2000
   -4.2725    2.0860   -1.3315 C   0  0  0  0  0  0
   -4.0815    2.2142    0.0423 C   0  0  0  0  0  0
   -2.8012    2.0989    0.5868 C   0  0  0  0  0  0
   -1.6894    1.8419   -0.2391 C   0  0  0  0  0  0
   -1.9037    1.7293   -1.6193 C   0  0  0  0  0  0
   -3.1819    1.8464   -2.1637 C   0  0  0  0  0  0
   -2.7385    2.2763    1.9615 O   0  0  0  0  0  0
   -1.5187    2.0004    2.6273 C   0  0  1  0  0  0
   -0.2925    2.4078    1.7554 C   0  0  2  0  0  0
   -0.2947    1.7068    0.3674 C   0  0  1  0  0  0
   -1.5996    2.9065    3.8725 C   0  0  0  0  0  0
   -0.2919    2.8609    4.6972 C   0  0  0  0  0  0
    0.9463    3.2036    3.8482 C   0  0  0  0  0  0
    1.0231    2.3428    2.5737 C   0  0  0  0  0  0
   -1.5207    0.5933    3.0281 N   0  0  2  0  0  0
    0.2658    0.2365    0.2703 C   0  0  2  0  0  0
   -1.5479   -0.4929    2.0563 C   0  0  0  0  0  0
   -0.1858   -0.7254    1.4005 C   0  0  0  0  0  0
    0.4882   -1.7010    1.7367 O   0  0  0  0  0  0
    1.7874    0.2487   -0.0355 C   0  0  0  0  0  0
    2.1243    0.3810   -1.3355 N   0  0  0  0  0  0
    2.6189    0.1574    0.8694 O   0  0  0  0  0  0
    3.4688    0.4468   -1.9314 C   0  0  0  0  0  0
    3.2897    0.5999   -3.4572 C   0  0  0  0  0  0
    4.2702   -0.8509   -1.6622 C   0  0  0  0  0  0
    4.2565    1.6731   -1.4078 C   0  0  0  0  0  0
   -5.2636    2.1781   -1.7508 H   0  0  0  0  0  0
   -4.9283    2.4099    0.6840 H   0  0  0  0  0  0
   -1.0677    1.5419   -2.2773 H   0  0  0  0  0  0
   -3.3257    1.7516   -3.2300 H   0  0  0  0  0  0
   -0.4440    3.4687    1.5385 H   0  0  0  0  0  0
    0.3295    2.3510   -0.2574 H   0  0  0  0  0  0
   -1.7931    3.9312    3.5492 H   0  0  0  0  0  0
   -2.4507    2.6064    4.4870 H   0  0  0  0  0  0
   -0.3634    3.5530    5.5369 H   0  0  0  0  0  0
   -0.1684    1.8700    5.1366 H   0  0  0  0  0  0
    0.9148    4.2585    3.5720 H   0  0  0  0  0  0
    1.8524    3.0718    4.4406 H   0  0  0  0  0  0
    1.8598    2.6793    1.9605 H   0  0  0  0  0  0
    1.2453    1.3145    2.8584 H   0  0  0  0  0  0
   -2.2633    0.4577    3.6988 H   0  0  0  0  0  0
   -0.1841   -0.2220   -0.6124 H   0  0  0  0  0  0
   -1.8253   -1.4020    2.5907 H   0  0  0  0  0  0
   -2.3181   -0.3406    1.3020 H   0  0  0  0  0  0
    1.3671    0.4474   -1.9993 H   0  0  0  0  0  0
    4.2501    0.6573   -3.9717 H   0  0  0  0  0  0
    2.7341    1.5051   -3.7080 H   0  0  0  0  0  0
    2.7443   -0.2433   -3.8842 H   0  0  0  0  0  0
    3.7332   -1.7327   -2.0146 H   0  0  0  0  0  0
    4.4722   -0.9959   -0.6008 H   0  0  0  0  0  0
    5.2363   -0.8353   -2.1684 H   0  0  0  0  0  0
    5.2251    1.7654   -1.9008 H   0  0  0  0  0  0
    4.4515    1.6092   -0.3369 H   0  0  0  0  0  0
    3.7124    2.6024   -1.5831 H   0  0  0  0  0  0
  1  2  2  0  0  0
  1  6  1  0  0  0
  1 27  1  0  0  0
  2  3  1  0  0  0
  2 28  1  0  0  0
  3  4  2  0  0  0
  3  7  1  0  0  0
  4  5  1  0  0  0
  4 10  1  0  0  0
  5  6  2  0  0  0
  5 29  1  0  0  0
  6 30  1  0  0  0
  7  8  1  0  0  0
  8  9  1  0  0  0
  8 11  1  0  0  0
  8 15  1  0  0  0
  9 10  1  0  0  0
  9 14  1  0  0  0
  9 31  1  0  0  0
 10 16  1  0  0  0
 10 32  1  0  0  0
 11 12  1  0  0  0
 11 33  1  0  0  0
 11 34  1  0  0  0
 12 13  1  0  0  0
 12 35  1  0  0  0
 12 36  1  0  0  0
 13 14  1  0  0  0
 13 37  1  0  0  0
 13 38  1  0  0  0
 14 39  1  0  0  0
 14 40  1  0  0  0
 15 17  1  0  0  0
 15 41  1  0  0  0
 16 18  1  0  0  0
 16 20  1  0  0  0
 16 42  1  0  0  0
 17 18  1  0  0  0
 17 43  1  0  0  0
 17 44  1  0  0  0
 18 19  2  0  0  0
 20 21  1  0  0  0
 20 22  2  0  0  0
 21 23  1  0  0  0
 21 45  1  0  0  0
 23 24  1  0  0  0
 23 25  1  0  0  0
 23 26  1  0  0  0
 24 46  1  0  0  0
 24 47  1  0  0  0
 24 48  1  0  0  0
 25 49  1  0  0  0
 25 50  1  0  0  0
 25 51  1  0  0  0
 26 52  1  0  0  0
 26 53  1  0  0  0
 26 54  1  0  0  0
M  END
> <chembl_id>
CHEMBL2316597

> <chembl_pref_name>
None

> <s_m_source_file>
sdf/inactives_sanitized.sdf

> <i_m_source_file_index>
8

> <i_lp_mmshare_version>
49012

> <i_m_ct_stereo_status>
1

> <i_f3d_flags>
0

> <s_epik_input>
W2NIXTFbY0hdW2NIXVtjSF1jKE8yKWMxW0NAQEhdKFtDQEBIXShbQ0BdMjM0KVtDSDJdW0NIMl1bQ0gyXVtDSDJdMylbQ0BIXShDKD1PKVtDSDJdW05IXTQpQyg9TylbTkhdQyhbQ0gzXSkoW0NIM10pW0NIM10=

> <s_epik_cmdline>
J2VwaWtfcHl0aG9uJywgJy1waHQnLCAnMC41JywgJy1waCcsICc3LjUnLCAnLW50JywgJy1tYScsICcyMDAnLCAnLWltYWUnLCAnPGluZmlsZS5tYWU+JywgJy1vbWFlJywgJzxvdXRmaWxlLm1hZT4n

> <r_lp_tautomer_probability>
1

> <r_epik_Ionization_Penalty>
  0.0395

> <r_epik_Ionization_Penalty_Charging>
  0.0000

> <r_epik_Ionization_Penalty_Neutral>
  0.0395

> <r_epik_State_Penalty>
 -0.0000

> <r_epik_Charging_Adjusted_Penalty>
0

> <i_epik_Tot_Q>
0

> <i_epik_Tot_abs_Q>
0

> <s_lp_Force_Field>
OPLS3e

> <r_lp_Energy>
36.553169

> <b_lp_Chiralities_Consistent>
1

> <s_lp_Variant>
sdf/inactives_sanitized.sdf:8-1

$$$$
sdf/inactives_sanitized.sdf:9
                    3D
 Schrodinger Suite 2020-1.
 51 53  0  0  1  0            999 V2000
   -2.0822   -3.2621    1.4706 S   0  0  0  0  0  0
   -3.2458   -2.5838    0.8876 O   0  0  0  0  0  0
   -1.9297   -4.7108    1.2959 O   0  0  0  0  0  0
   -0.5050   -2.4011    0.8457 C   0  0  2  0  0  0
   -0.4990   -0.8981    1.1980 C   0  0  0  0  0  0
   -0.0596   -0.1495   -0.0837 C   0  0  2  0  0  0
   -0.5323   -1.0674   -1.2503 C   0  0  1  0  0  0
   -0.3729   -2.5009   -0.6875 C   0  0  0  0  0  0
    1.4803    0.0344   -0.1358 C   0  0  0  0  0  0
   -2.0114   -0.8018   -1.6691 C   0  0  0  0  0  0
   -2.7236   -0.0953   -0.9497 O   0  0  0  0  0  0
   -2.5190   -1.4525   -2.7520 N   0  0  0  0  0  0
   -1.6750   -2.0656   -3.7912 C   0  0  0  0  0  0
   -1.6618   -1.0803   -4.9818 C   0  0  0  0  0  0
   -2.9972   -0.8201   -5.4183 O   0  0  0  0  0  0
   -3.8363   -0.2699   -4.4000 C   0  0  0  0  0  0
   -3.9091   -1.2247   -3.1843 C   0  0  0  0  0  0
    1.9243    1.1771   -0.6881 N   0  0  0  0  0  0
    2.2396   -0.7883    0.3804 O   0  0  0  0  0  0
    3.3279    1.5759   -0.7529 C   0  0  0  0  0  0
    3.9087    1.8408    0.5756 C   0  0  0  0  0  0
    4.3644    2.0492    1.6185 N   0  0  0  0  0  0
   -2.0854   -2.9294    3.2425 C   0  0  0  0  0  0
   -3.0550   -2.0615    3.7612 C   0  0  0  0  0  0
   -3.0854   -1.7634    5.1226 C   0  0  0  0  0  0
   -2.1451   -2.3287    5.9804 C   0  0  0  0  0  0
   -1.1741   -3.1912    5.4754 C   0  0  0  0  0  0
   -1.1352   -3.4960    4.1128 C   0  0  0  0  0  0
    0.1058   -4.5692    3.5631 Cl  0  0  0  0  0  0
    0.3294   -2.9149    1.3218 H   0  0  0  0  0  0
   -1.5006   -0.5525    1.4569 H   0  0  0  0  0  0
    0.1288   -0.6780    2.0637 H   0  0  0  0  0  0
   -0.4838    0.8572   -0.1124 H   0  0  0  0  0  0
    0.0573   -0.8829   -2.1505 H   0  0  0  0  0  0
   -1.0598   -3.2308   -1.1202 H   0  0  0  0  0  0
    0.6241   -2.8608   -0.9455 H   0  0  0  0  0  0
   -0.7111   -2.4591   -3.4696 H   0  0  0  0  0  0
   -2.2259   -2.9604   -4.0844 H   0  0  0  0  0  0
   -1.1641   -0.1470   -4.7107 H   0  0  0  0  0  0
   -1.0824   -1.4983   -5.8050 H   0  0  0  0  0  0
   -3.4671    0.7133   -4.1014 H   0  0  0  0  0  0
   -4.8351   -0.1056   -4.8042 H   0  0  0  0  0  0
   -4.2564   -2.2043   -3.5152 H   0  0  0  0  0  0
   -4.5986   -0.9378   -2.3890 H   0  0  0  0  0  0
    1.2491    1.8524   -1.0156 H   0  0  0  0  0  0
    3.9248    0.8123   -1.2543 H   0  0  0  0  0  0
    3.4110    2.4875   -1.3445 H   0  0  0  0  0  0
   -3.7917   -1.6073    3.1152 H   0  0  0  0  0  0
   -3.8373   -1.0930    5.5119 H   0  0  0  0  0  0
   -2.1673   -2.0976    7.0351 H   0  0  0  0  0  0
   -0.4468   -3.6238    6.1469 H   0  0  0  0  0  0
  1  2  2  0  0  0
  1  3  2  0  0  0
  1  4  1  0  0  0
  1 23  1  0  0  0
  4  5  1  0  0  0
  4  8  1  0  0  0
  4 30  1  0  0  0
  5  6  1  0  0  0
  5 31  1  0  0  0
  5 32  1  0  0  0
  6  7  1  0  0  0
  6  9  1  0  0  0
  6 33  1  0  0  0
  7  8  1  0  0  0
  7 10  1  0  0  0
  7 34  1  0  0  0
  8 35  1  0  0  0
  8 36  1  0  0  0
  9 18  1  0  0  0
  9 19  2  0  0  0
 10 11  2  0  0  0
 10 12  1  0  0  0
 12 13  1  0  0  0
 12 17  1  0  0  0
 13 14  1  0  0  0
 13 37  1  0  0  0
 13 38  1  0  0  0
 14 15  1  0  0  0
 14 39  1  0  0  0
 14 40  1  0  0  0
 15 16  1  0  0  0
 16 17  1  0  0  0
 16 41  1  0  0  0
 16 42  1  0  0  0
 17 43  1  0  0  0
 17 44  1  0  0  0
 18 20  1  0  0  0
 18 45  1  0  0  0
 20 21  1  0  0  0
 20 46  1  0  0  0
 20 47  1  0  0  0
 21 22  3  0  0  0
 23 24  2  0  0  0
 23 28  1  0  0  0
 24 25  1  0  0  0
 24 48  1  0  0  0
 25 26  2  0  0  0
 25 49  1  0  0  0
 26 27  1  0  0  0
 26 50  1  0  0  0
 27 28  2  0  0  0
 27 51  1  0  0  0
 28 29  1  0  0  0
M  END
> <chembl_id>
CHEMBL3093941

> <chembl_pref_name>
None

> <i_m_ct_stereo_status>
1

> <s_m_source_file>
sdf/inactives_sanitized.sdf

> <i_m_source_file_index>
9

> <i_lp_mmshare_version>
49012

> <i_f3d_flags>
0

> <s_epik_input>
Q2xjMVtjSF1bY0hdW2NIXVtjSF1jMVMoPU8pKD1PKVtDQEBIXTJbQ0gyXVtDQEBIXShDKD1PKVtOSF1bQ0gyXUMjTilbQ0BASF0oW0NIMl0yKUMoPU8pTjNbQ0gyXVtDSDJdT1tDSDJdW0NIMl0z

> <s_epik_cmdline>
J2VwaWtfcHl0aG9uJywgJy1waHQnLCAnMC41JywgJy1waCcsICc3LjUnLCAnLW50JywgJy1tYScsICcyMDAnLCAnLWltYWUnLCAnPGluZmlsZS5tYWU+JywgJy1vbWFlJywgJzxvdXRmaWxlLm1hZT4n

> <r_lp_tautomer_probability>
1

> <r_epik_Ionization_Penalty>
  0.0000

> <r_epik_Ionization_Penalty_Charging>
  0.0000

> <r_epik_Ionization_Penalty_Neutral>
  0.0000

> <r_epik_State_Penalty>
 -0.0000

> <r_epik_Charging_Adjusted_Penalty>
0

> <i_epik_Tot_Q>
0

> <i_epik_Tot_abs_Q>
0

> <s_lp_Force_Field>
OPLS3e

> <r_lp_Energy>
17.148493

> <b_lp_Chiralities_Consistent>
1

> <s_lp_Variant>
sdf/inactives_sanitized.sdf:9-1

$$$$
sdf/inactives_sanitized.sdf:10
                    3D
 Schrodinger Suite 2020-1.
 59 63  0  0  1  0            999 V2000
   -1.2436    8.7149    3.1700 C   0  0  0  0  0  0
   -1.9663    8.8020    1.9023 N   0  0  0  0  0  0
   -2.5748    9.9463    1.5037 C   0  0  0  0  0  0
   -2.6114   11.0342    2.0793 O   0  0  0  0  0  0
   -3.2368    9.6456    0.1575 C   0  0  0  0  0  0
   -2.8950    8.2104   -0.0768 C   0  0  0  0  0  0
   -3.2040    7.3470   -1.1252 C   0  0  0  0  0  0
   -2.7455    6.0284   -1.0844 C   0  0  0  0  0  0
   -1.9761    5.5545   -0.0062 C   0  0  0  0  0  0
   -1.6782    6.4476    1.0374 C   0  0  0  0  0  0
   -2.1431    7.7636    0.9898 C   0  0  0  0  0  0
   -1.4895    4.1407    0.0282 C   0  0  0  0  0  0
   -1.3592    3.4553    1.2445 C   0  0  0  0  0  0
   -0.9056    2.1395    1.2782 C   0  0  0  0  0  0
   -0.5740    1.4865    0.0911 C   0  0  0  0  0  0
   -0.0689    0.0503    0.1207 C   0  0  0  0  0  0
    1.4685   -0.0589    0.0563 C   0  0  2  0  0  0
    1.8870   -1.4603   -0.0364 N   0  0  0  0  0  0
    3.1599   -1.8989   -0.1197 C   0  0  0  0  0  0
    4.1184   -1.1256   -0.1109 O   0  0  0  0  0  0
    3.4221   -3.4280   -0.1903 C   0  0  1  0  0  0
    3.8237   -3.9910    1.1975 C   0  0  0  0  0  0
    4.0289   -5.5232    1.1181 C   0  0  0  0  0  0
    4.7104   -5.9173   -0.0852 O   0  0  0  0  0  0
    4.2989   -5.2864   -1.3139 C   0  0  1  0  0  0
    2.7783   -5.3924   -1.5349 C   0  0  0  0  0  0
    2.2098   -4.1346   -0.8449 N   0  3  0  0  0  0
    4.5356   -3.7836   -1.1891 C   0  0  0  0  0  0
    2.1209    0.6460    1.1797 C   0  0  0  0  0  0
    2.6307    1.1977    2.0601 N   0  0  0  0  0  0
   -0.6982    2.1541   -1.1268 C   0  0  0  0  0  0
   -1.1525    3.4695   -1.1557 C   0  0  0  0  0  0
   -1.5921    7.8531    3.7397 H   0  0  0  0  0  0
   -1.3737    9.6011    3.7930 H   0  0  0  0  0  0
   -0.1774    8.5860    2.9827 H   0  0  0  0  0  0
   -4.3133    9.8042    0.2295 H   0  0  0  0  0  0
   -2.8232   10.2969   -0.6130 H   0  0  0  0  0  0
   -3.7941    7.6813   -1.9658 H   0  0  0  0  0  0
   -3.0058    5.3709   -1.9008 H   0  0  0  0  0  0
   -1.0794    6.1209    1.8750 H   0  0  0  0  0  0
   -1.6184    3.9348    2.1769 H   0  0  0  0  0  0
   -0.8110    1.6324    2.2277 H   0  0  0  0  0  0
   -0.4467   -0.4506    1.0142 H   0  0  0  0  0  0
   -0.5187   -0.4862   -0.7169 H   0  0  0  0  0  0
    1.8062    0.4474   -0.8504 H   0  0  0  0  0  0
    1.1402   -2.1359   -0.0993 H   0  0  0  0  0  0
    4.7479   -3.5213    1.5407 H   0  0  0  0  0  0
    3.0685   -3.7627    1.9515 H   0  0  0  0  0  0
    4.6060   -5.8666    1.9773 H   0  0  0  0  0  0
    3.0715   -6.0427    1.1739 H   0  0  0  0  0  0
    4.8790   -5.7461   -2.1152 H   0  0  0  0  0  0
    2.4913   -5.2959   -2.5828 H   0  0  0  0  0  0
    2.3103   -6.2714   -1.0903 H   0  0  0  0  0  0
    1.8000   -3.5342   -1.5464 H   0  0  0  0  0  0
    5.5379   -3.5499   -0.8239 H   0  0  0  0  0  0
    4.4111   -3.2845   -2.1535 H   0  0  0  0  0  0
   -0.4395    1.6588   -2.0514 H   0  0  0  0  0  0
   -1.2288    3.9671   -2.1111 H   0  0  0  0  0  0
    1.4952   -4.3608   -0.1677 H   0  0  0  0  0  0
  1  2  1  0  0  0
  1 33  1  0  0  0
  1 34  1  0  0  0
  1 35  1  0  0  0
  2  3  1  0  0  0
  2 11  1  0  0  0
  3  4  2  0  0  0
  3  5  1  0  0  0
  5  6  1  0  0  0
  5 36  1  0  0  0
  5 37  1  0  0  0
  6  7  2  0  0  0
  6 11  1  0  0  0
  7  8  1  0  0  0
  7 38  1  0  0  0
  8  9  2  0  0  0
  8 39  1  0  0  0
  9 10  1  0  0  0
  9 12  1  0  0  0
 10 11  2  0  0  0
 10 40  1  0  0  0
 12 13  2  0  0  0
 12 32  1  0  0  0
 13 14  1  0  0  0
 13 41  1  0  0  0
 14 15  2  0  0  0
 14 42  1  0  0  0
 15 16  1  0  0  0
 15 31  1  0  0  0
 16 17  1  0  0  0
 16 43  1  0  0  0
 16 44  1  0  0  0
 17 18  1  0  0  0
 17 29  1  0  0  0
 17 45  1  0  0  0
 18 19  1  0  0  0
 18 46  1  0  0  0
 19 20  2  0  0  0
 19 21  1  0  0  0
 21 22  1  0  0  0
 21 27  1  0  0  0
 21 28  1  0  0  0
 22 23  1  0  0  0
 22 47  1  0  0  0
 22 48  1  0  0  0
 23 24  1  0  0  0
 23 49  1  0  0  0
 23 50  1  0  0  0
 24 25  1  0  0  0
 25 26  1  0  0  0
 25 28  1  0  0  0
 25 51  1  0  0  0
 26 27  1  0  0  0
 26 52  1  0  0  0
 26 53  1  0  0  0
 27 54  1  0  0  0
 27 59  1  0  0  0
 28 55  1  0  0  0
 28 56  1  0  0  0
 29 30  3  0  0  0
 31 32  2  0  0  0
 31 57  1  0  0  0
 32 58  1  0  0  0
M  CHG  1  27   1
M  END
> <chembl_id>
CHEMBL3964191

> <chembl_pref_name>
None

> <i_m_ct_stereo_status>
1

> <s_m_source_file>
sdf/inactives_sanitized.sdf

> <i_m_source_file_index>
10

> <i_lp_mmshare_version>
49012

> <i_f3d_flags>
0

> <s_epik_input>
Tz1DKFtDSDJdMSlOKFtDSDNdKWMoYzEyKVtjSF1jKFtjSF1bY0hdMiktYzNbY0hdW2NIXWMoW2NIXVtjSF0zKVtDSDJdW0NAQEhdKEMjTilbTkhdQyg9TylbQ0BAXTQ1W0NIMl1bQ0gyXU9bQ0BIXShbQ0gyXTUpW0NIMl1bTkhdNA==

> <s_epik_cmdline>
J2VwaWtfcHl0aG9uJywgJy1waHQnLCAnMC41JywgJy1waCcsICc3LjUnLCAnLW50JywgJy1tYScsICcyMDAnLCAnLWltYWUnLCAnPGluZmlsZS5tYWU+JywgJy1vbWFlJywgJzxvdXRmaWxlLm1hZT4n

> <r_epik_Ionization_Penalty>
  0.2548

> <r_epik_Ionization_Penalty_Charging>
  0.2544

> <r_epik_Ionization_Penalty_Neutral>
  0.0004

> <r_epik_State_Penalty>
  0.2458

> <r_epik_Charging_Adjusted_Penalty>
0.500178960665187

> <i_epik_Tot_Q>
1

> <i_epik_Tot_abs_Q>
1

> <s_lp_Force_Field>
OPLS3e

> <r_lp_Energy>
43.226547

> <b_lp_Chiralities_Consistent>
1

> <s_lp_Variant>
sdf/inactives_sanitized.sdf:10-1

$$$$
sdf/inactives_sanitized.sdf:10
                    3D
 Schrodinger Suite 2020-1.
 58 62  0  0  1  0            999 V2000
   -1.1112    8.7210    3.1690 C   0  0  0  0  0  0
   -1.8966    8.7836    1.9382 N   0  0  0  0  0  0
   -2.5162    9.9310    1.5692 C   0  0  0  0  0  0
   -2.5214   11.0169    2.1499 O   0  0  0  0  0  0
   -3.2392    9.6357    0.2534 C   0  0  0  0  0  0
   -2.9115    8.2003   -0.0002 C   0  0  0  0  0  0
   -3.2696    7.3424   -1.0378 C   0  0  0  0  0  0
   -2.8150    6.0218   -1.0230 C   0  0  0  0  0  0
   -2.0024    5.5408    0.0191 C   0  0  0  0  0  0
   -1.6546    6.4285    1.0516 C   0  0  0  0  0  0
   -2.1140    7.7472    1.0306 C   0  0  0  0  0  0
   -1.5204    4.1255    0.0306 C   0  0  0  0  0  0
   -1.3504    3.4366    1.2399 C   0  0  0  0  0  0
   -0.8932    2.1224    1.2553 C   0  0  0  0  0  0
   -0.5984    1.4735    0.0564 C   0  0  0  0  0  0
   -0.0801    0.0415    0.0700 C   0  0  0  0  0  0
    1.4453   -0.0609   -0.1370 C   0  0  2  0  0  0
    1.8754   -1.4613   -0.1559 N   0  0  0  0  0  0
    3.1408   -1.8998   -0.3131 C   0  0  0  0  0  0
    4.0884   -1.1255   -0.4618 O   0  0  0  0  0  0
    3.3837   -3.4345   -0.2651 C   0  0  1  0  0  0
    3.5696   -3.9065    1.2065 C   0  0  0  0  0  0
    3.8356   -5.4326    1.2761 C   0  0  0  0  0  0
    4.6699   -5.8901    0.1986 O   0  0  0  0  0  0
    4.4145   -5.3374   -1.1081 C   0  0  1  0  0  0
    2.9245   -5.3937   -1.4881 C   0  0  0  0  0  0
    2.3102   -4.1833   -0.9379 N   0  0  1  0  0  0
    4.6486   -3.8358   -1.0482 C   0  0  0  0  0  0
    2.1974    0.7440    0.8491 C   0  0  0  0  0  0
    2.7849    1.3747    1.6215 N   0  0  0  0  0  0
   -0.7661    2.1429   -1.1556 C   0  0  0  0  0  0
   -1.2240    3.4577   -1.1660 C   0  0  0  0  0  0
   -0.6892    7.7284    3.3234 H   0  0  0  0  0  0
   -1.7329    8.9586    4.0332 H   0  0  0  0  0  0
   -0.2867    9.4342    3.1344 H   0  0  0  0  0  0
   -4.3109    9.7964    0.3740 H   0  0  0  0  0  0
   -2.8594   10.2882   -0.5334 H   0  0  0  0  0  0
   -3.8951    7.6824   -1.8501 H   0  0  0  0  0  0
   -3.1120    5.3683   -1.8300 H   0  0  0  0  0  0
   -1.0212    6.0907    1.8578 H   0  0  0  0  0  0
   -1.5783    3.9134    2.1819 H   0  0  0  0  0  0
   -0.7643    1.6141    2.2000 H   0  0  0  0  0  0
   -0.3645   -0.4399    1.0078 H   0  0  0  0  0  0
   -0.6023   -0.5203   -0.7067 H   0  0  0  0  0  0
    1.6833    0.3685   -1.1122 H   0  0  0  0  0  0
    1.1368   -2.1494   -0.1636 H   0  0  0  0  0  0
    4.4116   -3.3805    1.6612 H   0  0  0  0  0  0
    2.6976   -3.6609    1.8155 H   0  0  0  0  0  0
    4.3105   -5.6875    2.2239 H   0  0  0  0  0  0
    2.8955   -5.9852    1.2526 H   0  0  0  0  0  0
    5.0647   -5.8520   -1.8162 H   0  0  0  0  0  0
    2.8050   -5.3779   -2.5721 H   0  0  0  0  0  0
    2.4374   -6.2956   -1.1163 H   0  0  0  0  0  0
    1.6069   -4.4440   -0.2614 H   0  0  0  0  0  0
    5.5817   -3.5751   -0.5445 H   0  0  0  0  0  0
    4.6753   -3.4039   -2.0518 H   0  0  0  0  0  0
   -0.5352    1.6505   -2.0892 H   0  0  0  0  0  0
   -1.3314    3.9594   -2.1164 H   0  0  0  0  0  0
  1  2  1  0  0  0
  1 33  1  0  0  0
  1 34  1  0  0  0
  1 35  1  0  0  0
  2  3  1  0  0  0
  2 11  1  0  0  0
  3  4  2  0  0  0
  3  5  1  0  0  0
  5  6  1  0  0  0
  5 36  1  0  0  0
  5 37  1  0  0  0
  6  7  2  0  0  0
  6 11  1  0  0  0
  7  8  1  0  0  0
  7 38  1  0  0  0
  8  9  2  0  0  0
  8 39  1  0  0  0
  9 10  1  0  0  0
  9 12  1  0  0  0
 10 11  2  0  0  0
 10 40  1  0  0  0
 12 13  2  0  0  0
 12 32  1  0  0  0
 13 14  1  0  0  0
 13 41  1  0  0  0
 14 15  2  0  0  0
 14 42  1  0  0  0
 15 16  1  0  0  0
 15 31  1  0  0  0
 16 17  1  0  0  0
 16 43  1  0  0  0
 16 44  1  0  0  0
 17 18  1  0  0  0
 17 29  1  0  0  0
 17 45  1  0  0  0
 18 19  1  0  0  0
 18 46  1  0  0  0
 19 20  2  0  0  0
 19 21  1  0  0  0
 21 22  1  0  0  0
 21 27  1  0  0  0
 21 28  1  0  0  0
 22 23  1  0  0  0
 22 47  1  0  0  0
 22 48  1  0  0  0
 23 24  1  0  0  0
 23 49  1  0  0  0
 23 50  1  0  0  0
 24 25  1  0  0  0
 25 26  1  0  0  0
 25 28  1  0  0  0
 25 51  1  0  0  0
 26 27  1  0  0  0
 26 52  1  0  0  0
 26 53  1  0  0  0
 27 54  1  0  0  0
 28 55  1  0  0  0
 28 56  1  0  0  0
 29 30  3  0  0  0
 31 32  2  0  0  0
 31 57  1  0  0  0
 32 58  1  0  0  0
M  END
> <chembl_id>
CHEMBL3964191

> <chembl_pref_name>
None

> <i_m_ct_stereo_status>
1

> <s_m_source_file>
sdf/inactives_sanitized.sdf

> <i_m_source_file_index>
10

> <i_lp_mmshare_version>
49012

> <i_f3d_flags>
0

> <s_epik_input>
Tz1DKFtDSDJdMSlOKFtDSDNdKWMoYzEyKVtjSF1jKFtjSF1bY0hdMiktYzNbY0hdW2NIXWMoW2NIXVtjSF0zKVtDSDJdW0NAQEhdKEMjTilbTkhdQyg9TylbQ0BAXTQ1W0NIMl1bQ0gyXU9bQ0BIXShbQ0gyXTUpW0NIMl1bTkhdNA==

> <s_epik_cmdline>
J2VwaWtfcHl0aG9uJywgJy1waHQnLCAnMC41JywgJy1waCcsICc3LjUnLCAnLW50JywgJy1tYScsICcyMDAnLCAnLWltYWUnLCAnPGluZmlsZS5tYWU+JywgJy1vbWFlJywgJzxvdXRmaWxlLm1hZT4n

> <r_epik_Ionization_Penalty>
  0.6237

> <r_epik_Ionization_Penalty_Charging>
  0.0000

> <r_epik_Ionization_Penalty_Neutral>
  0.6237

> <r_epik_State_Penalty>
  0.6399

> <r_epik_Charging_Adjusted_Penalty>
0.639882798540708

> <i_epik_Tot_Q>
0

> <i_epik_Tot_abs_Q>
0

> <s_lp_Force_Field>
OPLS3e

> <r_lp_Energy>
40.23716

> <b_lp_Chiralities_Consistent>
1

> <s_lp_Variant>
sdf/inactives_sanitized.sdf:10-2

$$$$
sdf/inactives_sanitized.sdf:11
                    3D
 Schrodinger Suite 2020-1.
 57 61  0  0  1  0            999 V2000
    0.3696    0.7622   -2.7772 O   0  0  0  0  0  0
   -0.2965   -0.2337   -2.4839 C   0  0  0  0  0  0
   -0.5326   -0.5977   -1.2097 N   0  0  0  0  0  0
   -0.0796    0.1062   -0.0040 C   0  0  1  0  0  0
    1.4462    0.0194    0.2406 C   0  0  0  0  0  0
    1.9946   -1.4022    0.2005 C   0  0  0  0  0  0
    2.7627   -1.8250   -0.8840 C   0  0  0  0  0  0
    3.2370   -3.1323   -0.9333 C   0  0  0  0  0  0
    2.9588   -4.0378    0.1000 C   0  0  0  0  0  0
    2.1904   -3.5951    1.1866 C   0  0  0  0  0  0
    1.7114   -2.2888    1.2386 C   0  0  0  0  0  0
    3.4723   -5.4415    0.0453 C   0  0  0  0  0  0
    3.8397   -6.1226    1.2201 C   0  0  0  0  0  0
    4.3239   -7.4316    1.1793 C   0  0  0  0  0  0
    4.4424   -8.0685   -0.0537 C   0  0  0  0  0  0
    4.9289   -9.4470   -0.3678 C   0  0  0  0  0  0
    5.3308  -10.3174    0.4012 O   0  0  0  0  0  0
    4.8327   -9.5396   -1.7058 N   0  0  0  0  0  0
    4.3218   -8.3528   -2.3780 C   0  0  0  0  0  0
    4.0884   -7.4246   -1.2238 C   0  0  0  0  0  0
    3.6044   -6.1164   -1.1813 C   0  0  0  0  0  0
   -0.5619    1.5002    0.0378 C   0  0  0  0  0  0
   -0.9407    2.5934    0.0718 N   0  0  0  0  0  0
   -0.8758   -1.1785   -3.5678 C   0  0  1  0  0  0
   -1.0753   -0.4355   -4.8375 N   0  0  1  0  0  0
   -0.4774   -1.1244   -5.9968 C   0  0  2  0  0  0
   -1.0736   -2.5585   -6.0756 C   0  0  0  0  0  0
   -0.7619   -3.3496   -4.7716 C   0  0  0  0  0  0
    0.0219   -2.4525   -3.7724 C   0  0  1  0  0  0
    1.3527   -2.0151   -4.4572 C   0  0  0  0  0  0
    1.0539   -1.2215   -5.7593 C   0  0  0  0  0  0
   -1.1128   -1.4082   -1.0500 H   0  0  0  0  0  0
   -0.5833   -0.3865    0.8284 H   0  0  0  0  0  0
    1.9737    0.6316   -0.4932 H   0  0  0  0  0  0
    1.6932    0.4651    1.2053 H   0  0  0  0  0  0
    2.9902   -1.1443   -1.6912 H   0  0  0  0  0  0
    3.8350   -3.4312   -1.7817 H   0  0  0  0  0  0
    1.9462   -4.2663    1.9968 H   0  0  0  0  0  0
    1.1143   -1.9704    2.0809 H   0  0  0  0  0  0
    3.7644   -5.6348    2.1807 H   0  0  0  0  0  0
    4.6015   -7.9288    2.0975 H   0  0  0  0  0  0
    5.0946  -10.3687   -2.2189 H   0  0  0  0  0  0
    5.0549   -7.9711   -3.0898 H   0  0  0  0  0  0
    3.4094   -8.5870   -2.9279 H   0  0  0  0  0  0
    3.3217   -5.6266   -2.1017 H   0  0  0  0  0  0
   -1.8611   -1.4701   -3.1977 H   0  0  0  0  0  0
   -2.0677   -0.3785   -5.0160 H   0  0  0  0  0  0
   -0.6920   -0.5625   -6.9064 H   0  0  0  0  0  0
   -2.1516   -2.5086   -6.2370 H   0  0  0  0  0  0
   -0.6646   -3.0847   -6.9393 H   0  0  0  0  0  0
   -1.6861   -3.7069   -4.3150 H   0  0  0  0  0  0
   -0.1810   -4.2431   -5.0051 H   0  0  0  0  0  0
    0.2090   -2.9808   -2.8358 H   0  0  0  0  0  0
    1.9588   -1.4131   -3.7808 H   0  0  0  0  0  0
    1.9574   -2.8937   -4.6863 H   0  0  0  0  0  0
    1.4864   -0.2215   -5.6955 H   0  0  0  0  0  0
    1.5346   -1.7032   -6.6119 H   0  0  0  0  0  0
  1  2  2  0  0  0
  2  3  1  0  0  0
  2 24  1  0  0  0
  3  4  1  0  0  0
  3 32  1  0  0  0
  4  5  1  0  0  0
  4 22  1  0  0  0
  4 33  1  0  0  0
  5  6  1  0  0  0
  5 34  1  0  0  0
  5 35  1  0  0  0
  6  7  2  0  0  0
  6 11  1  0  0  0
  7  8  1  0  0  0
  7 36  1  0  0  0
  8  9  2  0  0  0
  8 37  1  0  0  0
  9 10  1  0  0  0
  9 12  1  0  0  0
 10 11  2  0  0  0
 10 38  1  0  0  0
 11 39  1  0  0  0
 12 13  2  0  0  0
 12 21  1  0  0  0
 13 14  1  0  0  0
 13 40  1  0  0  0
 14 15  2  0  0  0
 14 41  1  0  0  0
 15 16  1  0  0  0
 15 20  1  0  0  0
 16 17  2  0  0  0
 16 18  1  0  0  0
 18 19  1  0  0  0
 18 42  1  0  0  0
 19 20  1  0  0  0
 19 43  1  0  0  0
 19 44  1  0  0  0
 20 21  2  0  0  0
 21 45  1  0  0  0
 22 23  3  0  0  0
 24 25  1  0  0  0
 24 29  1  0  0  0
 24 46  1  0  0  0
 25 26  1  0  0  0
 25 47  1  0  0  0
 26 27  1  0  0  0
 26 31  1  0  0  0
 26 48  1  0  0  0
 27 28  1  0  0  0
 27 49  1  0  0  0
 27 50  1  0  0  0
 28 29  1  0  0  0
 28 51  1  0  0  0
 28 52  1  0  0  0
 29 30  1  0  0  0
 29 53  1  0  0  0
 30 31  1  0  0  0
 30 54  1  0  0  0
 30 55  1  0  0  0
 31 56  1  0  0  0
 31 57  1  0  0  0
M  END
> <chembl_id>
CHEMBL3695338

> <chembl_pref_name>
None

> <i_m_ct_stereo_status>
1

> <s_m_source_file>
sdf/inactives_sanitized.sdf

> <i_m_source_file_index>
11

> <i_lp_mmshare_version>
49012

> <i_f3d_flags>
0

> <s_epik_input>
W0NIMl0xW0NIMl1bQ0BASF0oW0NIMl1bQ0gyXTIpW0NASF0oW05IXVtDQEhdMTIpQyg9TylbTkhdW0NASF0oQyNOKVtDSDJdYzNbY0hdW2NIXWMoW2NIXVtjSF0zKS1jKFtjSF1bY0hdNClbY0hdYyhjNDUpW0NIMl1bTkhdQzU9Tw==

> <s_epik_cmdline>
J2VwaWtfcHl0aG9uJywgJy1waHQnLCAnMC41JywgJy1waCcsICc3LjUnLCAnLW50JywgJy1tYScsICcyMDAnLCAnLWltYWUnLCAnPGluZmlsZS5tYWU+JywgJy1vbWFlJywgJzxvdXRmaWxlLm1hZT4n

> <r_epik_Ionization_Penalty>
  0.4101

> <r_epik_Ionization_Penalty_Charging>
  0.0000

> <r_epik_Ionization_Penalty_Neutral>
  0.4101

> <r_epik_State_Penalty>
  0.4100

> <r_epik_Charging_Adjusted_Penalty>
0.410033589345069

> <i_epik_Tot_Q>
0

> <i_epik_Tot_abs_Q>
0

> <s_lp_Force_Field>
OPLS3e

> <r_lp_Energy>
39.499198

> <b_lp_Chiralities_Consistent>
1

> <s_lp_Variant>
sdf/inactives_sanitized.sdf:11-1

$$$$
sdf/inactives_sanitized.sdf:11
                    3D
 Schrodinger Suite 2020-1.
 58 62  0  0  1  0            999 V2000
   -1.1387   -2.5942   -0.3287 O   0  0  0  0  0  0
   -1.1108   -1.8540   -1.3157 C   0  0  0  0  0  0
   -0.6177   -0.6034   -1.2676 N   0  0  0  0  0  0
   -0.0272    0.0357   -0.0879 C   0  0  1  0  0  0
    1.5171   -0.0159   -0.0818 C   0  0  0  0  0  0
    2.0829   -1.4303   -0.0660 C   0  0  0  0  0  0
    2.0363   -2.1818    1.1074 C   0  0  0  0  0  0
    2.5296   -3.4831    1.1196 C   0  0  0  0  0  0
    3.0786   -4.0557   -0.0365 C   0  0  0  0  0  0
    3.1195   -3.2858   -1.2078 C   0  0  0  0  0  0
    2.6271   -1.9838   -1.2250 C   0  0  0  0  0  0
    3.6095   -5.4539   -0.0197 C   0  0  0  0  0  0
    3.5214   -6.2755   -1.1584 C   0  0  0  0  0  0
    4.0169   -7.5811   -1.1519 C   0  0  0  0  0  0
    4.6085   -8.0718    0.0098 C   0  0  0  0  0  0
    5.2102   -9.4145    0.2755 C   0  0  0  0  0  0
    5.3110  -10.3779   -0.4809 O   0  0  0  0  0  0
    5.6305   -9.3472    1.5508 N   0  0  0  0  0  0
    5.3852   -8.0784    2.2222 C   0  0  0  0  0  0
    4.7076   -7.2882    1.1434 C   0  0  0  0  0  0
    4.2121   -5.9839    1.1352 C   0  0  0  0  0  0
   -0.5309    1.4139    0.0278 C   0  0  0  0  0  0
   -0.9274    2.4971    0.1181 N   0  0  0  0  0  0
   -1.6394   -2.3062   -2.7015 C   0  0  1  0  0  0
   -1.9532   -3.8273   -2.5804 N   0  3  0  0  0  0
   -3.4043   -4.1656   -2.9998 C   0  0  2  0  0  0
   -3.5750   -3.6597   -4.4549 C   0  0  0  0  0  0
   -3.3253   -2.1260   -4.5388 C   0  0  0  0  0  0
   -2.9316   -1.5405   -3.1523 C   0  0  1  0  0  0
   -4.0952   -1.8526   -2.1610 C   0  0  0  0  0  0
   -4.3400   -3.3832   -2.0445 C   0  0  0  0  0  0
   -0.5362   -0.0890   -2.1326 H   0  0  0  0  0  0
   -0.3933   -0.4467    0.8212 H   0  0  0  0  0  0
    1.9127    0.5292   -0.9409 H   0  0  0  0  0  0
    1.9012    0.5161    0.7903 H   0  0  0  0  0  0
    1.6093   -1.7637    2.0076 H   0  0  0  0  0  0
    2.4690   -4.0477    2.0384 H   0  0  0  0  0  0
    3.5451   -3.6878   -2.1153 H   0  0  0  0  0  0
    2.6669   -1.4105   -2.1399 H   0  0  0  0  0  0
    3.0562   -5.9102   -2.0620 H   0  0  0  0  0  0
    3.9346   -8.1899   -2.0406 H   0  0  0  0  0  0
    6.0858  -10.1164    2.0201 H   0  0  0  0  0  0
    4.7567   -8.2250    3.1015 H   0  0  0  0  0  0
    6.3245   -7.6321    2.5514 H   0  0  0  0  0  0
    4.3067   -5.3772    2.0238 H   0  0  0  0  0  0
   -0.8110   -2.2240   -3.4074 H   0  0  0  0  0  0
   -1.3150   -4.3480   -3.1649 H   0  0  0  0  0  0
   -3.5103   -5.2474   -2.9072 H   0  0  0  0  0  0
   -2.8896   -4.1883   -5.1193 H   0  0  0  0  0  0
   -4.5784   -3.8946   -4.8130 H   0  0  0  0  0  0
   -2.5450   -1.9134   -5.2714 H   0  0  0  0  0  0
   -4.2200   -1.6242   -4.9113 H   0  0  0  0  0  0
   -2.7576   -0.4655   -3.2263 H   0  0  0  0  0  0
   -3.8935   -1.4246   -1.1780 H   0  0  0  0  0  0
   -5.0071   -1.3606   -2.5036 H   0  0  0  0  0  0
   -4.1799   -3.7093   -1.0153 H   0  0  0  0  0  0
   -5.3816   -3.6143   -2.2726 H   0  0  0  0  0  0
   -1.8070   -4.1195   -1.6239 H   0  0  0  0  0  0
  1  2  2  0  0  0
  2  3  1  0  0  0
  2 24  1  0  0  0
  3  4  1  0  0  0
  3 32  1  0  0  0
  4  5  1  0  0  0
  4 22  1  0  0  0
  4 33  1  0  0  0
  5  6  1  0  0  0
  5 34  1  0  0  0
  5 35  1  0  0  0
  6  7  2  0  0  0
  6 11  1  0  0  0
  7  8  1  0  0  0
  7 36  1  0  0  0
  8  9  2  0  0  0
  8 37  1  0  0  0
  9 10  1  0  0  0
  9 12  1  0  0  0
 10 11  2  0  0  0
 10 38  1  0  0  0
 11 39  1  0  0  0
 12 13  2  0  0  0
 12 21  1  0  0  0
 13 14  1  0  0  0
 13 40  1  0  0  0
 14 15  2  0  0  0
 14 41  1  0  0  0
 15 16  1  0  0  0
 15 20  1  0  0  0
 16 17  2  0  0  0
 16 18  1  0  0  0
 18 19  1  0  0  0
 18 42  1  0  0  0
 19 20  1  0  0  0
 19 43  1  0  0  0
 19 44  1  0  0  0
 20 21  2  0  0  0
 21 45  1  0  0  0
 22 23  3  0  0  0
 24 25  1  0  0  0
 24 29  1  0  0  0
 24 46  1  0  0  0
 25 26  1  0  0  0
 25 47  1  0  0  0
 25 58  1  0  0  0
 26 27  1  0  0  0
 26 31  1  0  0  0
 26 48  1  0  0  0
 27 28  1  0  0  0
 27 49  1  0  0  0
 27 50  1  0  0  0
 28 29  1  0  0  0
 28 51  1  0  0  0
 28 52  1  0  0  0
 29 30  1  0  0  0
 29 53  1  0  0  0
 30 31  1  0  0  0
 30 54  1  0  0  0
 30 55  1  0  0  0
 31 56  1  0  0  0
 31 57  1  0  0  0
M  CHG  1  25   1
M  END
> <chembl_id>
CHEMBL3695338

> <chembl_pref_name>
None

> <i_m_ct_stereo_status>
1

> <s_m_source_file>
sdf/inactives_sanitized.sdf

> <i_m_source_file_index>
11

> <i_lp_mmshare_version>
49012

> <i_f3d_flags>
0

> <s_epik_input>
W0NIMl0xW0NIMl1bQ0BASF0oW0NIMl1bQ0gyXTIpW0NASF0oW05IXVtDQEhdMTIpQyg9TylbTkhdW0NASF0oQyNOKVtDSDJdYzNbY0hdW2NIXWMoW2NIXVtjSF0zKS1jKFtjSF1bY0hdNClbY0hdYyhjNDUpW0NIMl1bTkhdQzU9Tw==

> <s_epik_cmdline>
J2VwaWtfcHl0aG9uJywgJy1waHQnLCAnMC41JywgJy1waCcsICc3LjUnLCAnLW50JywgJy1tYScsICcyMDAnLCAnLWltYWUnLCAnPGluZmlsZS5tYWU+JywgJy1vbWFlJywgJzxvdXRmaWxlLm1hZT4n

> <r_epik_Ionization_Penalty>
  0.4114

> <r_epik_Ionization_Penalty_Charging>
  0.4113

> <r_epik_Ionization_Penalty_Neutral>
  0.0002

> <r_epik_State_Penalty>
  0.4113

> <r_epik_Charging_Adjusted_Penalty>
0.822612897831462

> <i_epik_Tot_Q>
1

> <i_epik_Tot_abs_Q>
1

> <s_lp_Force_Field>
OPLS3e

> <r_lp_Energy>
49.883775

> <b_lp_Chiralities_Consistent>
1

> <s_lp_Variant>
sdf/inactives_sanitized.sdf:11-2

$$$$
sdf/inactives_sanitized.sdf:12
                    3D
 Schrodinger Suite 2020-1.
 75 77  0  0  1  0            999 V2000
    2.9054    4.9005   -6.5065 C   0  0  0  0  0  0
    2.0960    4.7500   -7.6321 C   0  0  0  0  0  0
    0.8692    4.0956   -7.5294 C   0  0  0  0  0  0
    0.4536    3.5940   -6.2995 C   0  0  0  0  0  0
    1.2534    3.7364   -5.1566 C   0  0  0  0  0  0
    2.4833    4.3985   -5.2786 C   0  0  0  0  0  0
    0.8143    3.1758   -3.8425 C   0  0  0  0  0  0
    0.0855    1.9805   -3.7833 C   0  0  0  0  0  0
   -0.3125    1.4463   -2.5618 C   0  0  0  0  0  0
    0.0048    2.1051   -1.3709 C   0  0  0  0  0  0
    0.7233    3.3006   -1.4179 C   0  0  0  0  0  0
    1.1269    3.8271   -2.6418 C   0  0  0  0  0  0
    2.6356    5.3878   -9.2166 S   0  0  0  0  0  0
    3.5388    3.9214   -9.9844 C   0  0  0  0  0  0
    1.4346    5.6644  -10.0129 O   0  0  0  0  0  0
    3.6119    6.4520   -8.9566 O   0  0  0  0  0  0
   -0.4225    1.5327   -0.0142 C   0  0  2  0  0  0
    0.0465    0.1567    0.1923 N   0  0  1  0  0  0
   -1.9521    1.6230    0.2197 C   0  0  0  0  0  0
   -2.2791    1.2099    1.4456 F   0  0  0  0  0  0
   -2.3801    2.8812    0.1086 F   0  0  0  0  0  0
   -2.6513    0.8862   -0.6456 F   0  0  0  0  0  0
    1.5126   -0.0133    0.3478 C   0  0  2  0  0  0
    2.0575   -0.6068   -0.9715 C   0  0  0  0  0  0
    1.8358   -0.9071    1.5773 C   0  0  0  0  0  0
    3.3314   -1.2477    1.8090 C   0  0  0  0  0  0
    3.5018   -2.1939    3.0162 C   0  0  0  0  0  0
    4.2192    0.0098    1.9242 C   0  0  0  0  0  0
    1.7492   -1.7543   -1.2989 O   0  0  0  0  0  0
    2.8732    0.1993   -1.6775 N   0  0  0  0  0  0
    3.6529   -0.1287   -2.8790 C   0  0  2  0  0  0
    2.7604   -0.7363   -3.9980 C   0  0  0  0  0  0
    4.8752   -1.0094   -2.5348 C   0  0  0  0  0  0
    4.7249   -2.1353   -2.0628 O   0  0  0  0  0  0
    6.0784   -0.4970   -2.8064 N   0  0  0  0  0  0
    3.3169   -0.5932   -5.4046 C   0  0  0  0  0  0
    3.1285    0.6095   -6.1164 C   0  0  0  0  0  0
    3.7163    0.7833   -7.3616 C   0  0  0  0  0  0
    4.5164   -0.2162   -7.9009 C   0  0  0  0  0  0
    4.7452   -1.3909   -7.1941 C   0  0  0  0  0  0
    4.1661   -1.5818   -5.9460 C   0  0  0  0  0  0
    3.8607    5.3997   -6.5780 H   0  0  0  0  0  0
    0.2366    3.9723   -8.3965 H   0  0  0  0  0  0
   -0.5030    3.0955   -6.2416 H   0  0  0  0  0  0
    3.1319    4.5141   -4.4228 H   0  0  0  0  0  0
   -0.1623    1.4416   -4.6860 H   0  0  0  0  0  0
   -0.8602    0.5153   -2.5428 H   0  0  0  0  0  0
    0.9755    3.8241   -0.5071 H   0  0  0  0  0  0
    1.6787    4.7555   -2.6485 H   0  0  0  0  0  0
    3.8951    4.2072  -10.9736 H   0  0  0  0  0  0
    2.8489    3.0817  -10.0653 H   0  0  0  0  0  0
    4.3826    3.6528   -9.3492 H   0  0  0  0  0  0
    0.0392    2.1372    0.7689 H   0  0  0  0  0  0
   -0.4718   -0.2750    0.9446 H   0  0  0  0  0  0
    1.9873    0.9532    0.5314 H   0  0  0  0  0  0
    1.4595   -0.4079    2.4718 H   0  0  0  0  0  0
    1.2623   -1.8340    1.5097 H   0  0  0  0  0  0
    3.6819   -1.8074    0.9409 H   0  0  0  0  0  0
    4.0240   -1.7230    3.8489 H   0  0  0  0  0  0
    4.0719   -3.0798    2.7351 H   0  0  0  0  0  0
    2.5428   -2.5404    3.4029 H   0  0  0  0  0  0
    3.6381    0.9008    2.1621 H   0  0  0  0  0  0
    4.7388    0.1982    0.9843 H   0  0  0  0  0  0
    4.9849   -0.0867    2.6939 H   0  0  0  0  0  0
    3.0358    1.1278   -1.3167 H   0  0  0  0  0  0
    3.9908    0.8509   -3.2236 H   0  0  0  0  0  0
    2.5677   -1.7942   -3.8106 H   0  0  0  0  0  0
    1.7749   -0.2703   -3.9845 H   0  0  0  0  0  0
    6.1648    0.4237   -3.2108 H   0  0  0  0  0  0
    6.9104   -1.0347   -2.6116 H   0  0  0  0  0  0
    2.5242    1.3962   -5.6939 H   0  0  0  0  0  0
    3.5562    1.7019   -7.9063 H   0  0  0  0  0  0
    4.9734   -0.0742   -8.8693 H   0  0  0  0  0  0
    5.3829   -2.1554   -7.6130 H   0  0  0  0  0  0
    4.3656   -2.4888   -5.3936 H   0  0  0  0  0  0
  1  6  2  0  0  0
  1  2  1  0  0  0
  1 42  1  0  0  0
  2  3  2  0  0  0
  2 13  1  0  0  0
  3  4  1  0  0  0
  3 43  1  0  0  0
  4  5  2  0  0  0
  4 44  1  0  0  0
  5  6  1  0  0  0
  5  7  1  0  0  0
  6 45  1  0  0  0
  7 12  1  0  0  0
  7  8  2  0  0  0
  8  9  1  0  0  0
  8 46  1  0  0  0
  9 10  2  0  0  0
  9 47  1  0  0  0
 10 11  1  0  0  0
 10 17  1  0  0  0
 11 12  2  0  0  0
 11 48  1  0  0  0
 12 49  1  0  0  0
 13 14  1  0  0  0
 13 15  2  0  0  0
 13 16  2  0  0  0
 14 50  1  0  0  0
 14 51  1  0  0  0
 14 52  1  0  0  0
 17 18  1  0  0  0
 17 19  1  0  0  0
 17 53  1  0  0  0
 18 23  1  0  0  0
 18 54  1  0  0  0
 19 20  1  0  0  0
 19 21  1  0  0  0
 19 22  1  0  0  0
 23 24  1  0  0  0
 23 25  1  0  0  0
 23 55  1  0  0  0
 24 29  2  0  0  0
 24 30  1  0  0  0
 25 26  1  0  0  0
 25 56  1  0  0  0
 25 57  1  0  0  0
 26 27  1  0  0  0
 26 28  1  0  0  0
 26 58  1  0  0  0
 27 59  1  0  0  0
 27 60  1  0  0  0
 27 61  1  0  0  0
 28 62  1  0  0  0
 28 63  1  0  0  0
 28 64  1  0  0  0
 30 31  1  0  0  0
 30 65  1  0  0  0
 31 32  1  0  0  0
 31 33  1  0  0  0
 31 66  1  0  0  0
 32 36  1  0  0  0
 32 67  1  0  0  0
 32 68  1  0  0  0
 33 34  2  0  0  0
 33 35  1  0  0  0
 35 69  1  0  0  0
 35 70  1  0  0  0
 36 37  2  0  0  0
 36 41  1  0  0  0
 37 38  1  0  0  0
 37 71  1  0  0  0
 38 39  2  0  0  0
 38 72  1  0  0  0
 39 40  1  0  0  0
 39 73  1  0  0  0
 40 41  2  0  0  0
 40 74  1  0  0  0
 41 75  1  0  0  0
M  END
> <chembl_id>
CHEMBL398608

> <chembl_pref_name>
None

> <i_m_ct_stereo_status>
1

> <s_m_source_file>
sdf/inactives_sanitized.sdf

> <i_m_source_file_index>
12

> <i_lp_mmshare_version>
49012

> <i_f3d_flags>
0

> <s_epik_input>
W0NIM11TKD1PKSg9TyljMVtjSF1bY0hdYyhbY0hdW2NIXTEpLWMyW2NIXVtjSF1jKFtjSF1bY0hdMilbQ0BASF0oQyhGKShGKUYpW05IXVtDQEBIXShbQ0gyXVtDSF0oW0NIM10pW0NIM10pQyg9TylbTkhdW0NAQEhdKEMoPU8pW05IMl0pW0NIMl1jM1tjSF1bY0hdW2NIXVtjSF1bY0hdMw==

> <s_epik_cmdline>
J2VwaWtfcHl0aG9uJywgJy1waHQnLCAnMC41JywgJy1waCcsICc3LjUnLCAnLW50JywgJy1tYScsICcyMDAnLCAnLWltYWUnLCAnPGluZmlsZS5tYWU+JywgJy1vbWFlJywgJzxvdXRmaWxlLm1hZT4n

> <r_lp_tautomer_probability>
1

> <r_epik_Ionization_Penalty>
  0.0004

> <r_epik_Ionization_Penalty_Charging>
  0.0000

> <r_epik_Ionization_Penalty_Neutral>
  0.0004

> <r_epik_State_Penalty>
 -0.0000

> <r_epik_Charging_Adjusted_Penalty>
0

> <i_epik_Tot_Q>
0

> <i_epik_Tot_abs_Q>
0

> <s_lp_Force_Field>
OPLS3e

> <r_lp_Energy>
40.510876

> <b_lp_Chiralities_Consistent>
1

> <s_lp_Variant>
sdf/inactives_sanitized.sdf:12-1

$$$$
sdf/inactives_sanitized.sdf:13
                    3D
 Schrodinger Suite 2020-1.
 15 15  0  0  1  0            999 V2000
    0.1133    0.1189    0.1711 C   0  0  0  0  0  0
   -1.0122    0.2585    0.4020 N   0  0  0  0  0  0
    1.4070   -0.0828   -0.1383 N   0  0  0  0  0  0
    1.9282   -1.4424   -0.1279 C   0  0  0  0  0  0
    1.9329    0.4946   -1.3672 C   0  0  0  0  0  0
    3.4009   -1.2070   -0.4709 C   0  0  0  0  0  0
    3.4041    0.0800   -1.2933 C   0  0  0  0  0  0
    1.8070   -1.9001    0.8547 H   0  0  0  0  0  0
    1.4241   -2.0567   -0.8766 H   0  0  0  0  0  0
    1.4292    0.0734   -2.2395 H   0  0  0  0  0  0
    1.8149    1.5790   -1.3710 H   0  0  0  0  0  0
    3.9824   -1.0655    0.4421 H   0  0  0  0  0  0
    3.8347   -2.0589   -0.9956 H   0  0  0  0  0  0
    3.8404   -0.0394   -2.2855 H   0  0  0  0  0  0
    3.9861    0.8475   -0.7795 H   0  0  0  0  0  0
  1  2  3  0  0  0
  1  3  1  0  0  0
  3  4  1  0  0  0
  3  5  1  0  0  0
  4  6  1  0  0  0
  4  8  1  0  0  0
  4  9  1  0  0  0
  5  7  1  0  0  0
  5 10  1  0  0  0
  5 11  1  0  0  0
  6  7  1  0  0  0
  6 12  1  0  0  0
  6 13  1  0  0  0
  7 14  1  0  0  0
  7 15  1  0  0  0
M  END
> <chembl_id>
CHEMBL262697

> <chembl_pref_name>
CYANO-PYRROLIDINE

> <s_m_source_file>
sdf/inactives_sanitized.sdf

> <i_m_source_file_index>
13

> <i_lp_mmshare_version>
49012

> <i_m_ct_stereo_status>
1

> <i_f3d_flags>
0

> <s_epik_input>
TiNDTjFbQ0gyXVtDSDJdW0NIMl1bQ0gyXTE=

> <s_epik_cmdline>
J2VwaWtfcHl0aG9uJywgJy1waHQnLCAnMC41JywgJy1waCcsICc3LjUnLCAnLW50JywgJy1tYScsICcyMDAnLCAnLWltYWUnLCAnPGluZmlsZS5tYWU+JywgJy1vbWFlJywgJzxvdXRmaWxlLm1hZT4n

> <r_lp_tautomer_probability>
1

> <r_epik_Ionization_Penalty>
  0.0000

> <r_epik_Ionization_Penalty_Charging>
  0.0000

> <r_epik_Ionization_Penalty_Neutral>
  0.0000

> <r_epik_State_Penalty>
 -0.0000

> <r_epik_Charging_Adjusted_Penalty>
0

> <i_epik_Tot_Q>
0

> <i_epik_Tot_abs_Q>
0

> <s_lp_Force_Field>
OPLS3e

> <r_lp_Energy>
16.033247

> <b_lp_Chiralities_Consistent>
1

> <s_lp_Variant>
sdf/inactives_sanitized.sdf:13-1

$$$$
sdf/inactives_sanitized.sdf:14
                    3D
 Schrodinger Suite 2020-1.
 69 73  0  0  1  0            999 V2000
   -3.9211   -3.3799   -2.8355 C   0  0  0  0  0  0
   -2.4971   -2.9163   -2.4827 C   0  0  0  0  0  0
   -2.3508   -2.3053   -1.0610 C   0  0  2  0  0  0
   -1.0244   -1.7357   -0.8158 N   0  0  0  0  0  0
   -0.5757   -0.5415   -1.2466 C   0  0  0  0  0  0
   -1.2322    0.1811   -1.9965 O   0  0  0  0  0  0
    0.8451   -0.1050   -0.8140 C   0  0  2  0  0  0
    1.8738   -0.4232   -1.9069 C   0  0  0  0  0  0
    3.1375   -0.6882   -1.1077 C   0  0  2  0  0  0
    2.6054   -1.2982    0.1914 C   0  0  0  0  0  0
    1.2759   -0.7336    0.4529 N   0  0  0  0  0  0
    0.8805   -0.3634    1.7546 C   0  0  0  0  0  0
    0.4952    0.9629    2.0144 C   0  0  0  0  0  0
    0.2178    1.3981    3.3065 C   0  0  0  0  0  0
    0.3153    0.5128    4.3714 C   0  0  0  0  0  0
    0.6650   -0.8124    4.1376 C   0  0  0  0  0  0
    0.9432   -1.2739    2.8414 C   0  0  0  0  0  0
    1.1798   -2.7280    2.6583 N   0  3  0  0  0  0
    0.7704   -3.2746    1.6386 O   0  0  0  0  0  0
    1.7194   -3.3453    3.5720 O   0  5  0  0  0  0
    4.1231    0.9170   -0.8128 S   0  0  0  0  0  0
    4.6422    1.3674   -2.1096 O   0  0  0  0  0  0
    3.3010    1.8326   -0.0168 O   0  0  0  0  0  0
    5.5595    0.3599    0.1460 C   0  0  0  0  0  0
    6.4777   -0.4057   -0.5855 C   0  0  0  0  0  0
    7.6256   -0.9202    0.0074 C   0  0  0  0  0  0
    7.8749   -0.6758    1.3512 C   0  0  0  0  0  0
    6.9766    0.0824    2.0962 C   0  0  0  0  0  0
    5.8085    0.6136    1.5215 C   0  0  0  0  0  0
    4.8849    1.4500    2.4213 C   0  0  0  0  0  0
    5.3135    1.5114    3.6840 F   0  0  0  0  0  0
    4.8233    2.7041    1.9744 F   0  0  0  0  0  0
    3.6639    0.9214    2.4604 F   0  0  0  0  0  0
   -2.5107   -3.3049    0.0837 C   0  0  0  0  0  0
   -2.5468   -4.5189   -0.1288 O   0  0  0  0  0  0
   -2.6109   -2.7996    1.4562 C   0  0  0  0  0  0
   -2.8315   -1.4573    1.6246 O   0  0  0  0  0  0
   -2.8651   -1.2985    2.9742 C   0  0  0  0  0  0
   -3.0694   -0.1303    3.7147 C   0  0  0  0  0  0
   -3.0447   -0.2672    5.1054 C   0  0  0  0  0  0
   -2.8243   -1.5085    5.7133 C   0  0  0  0  0  0
   -2.6244   -2.6697    4.9571 C   0  0  0  0  0  0
   -2.6498   -2.5557    3.5585 C   0  0  0  0  0  0
   -2.4961   -3.4917    2.5746 N   0  0  0  0  0  0
   -3.9648   -3.7489   -3.8605 H   0  0  0  0  0  0
   -4.6343   -2.5595   -2.7500 H   0  0  0  0  0  0
   -4.2600   -4.1854   -2.1841 H   0  0  0  0  0  0
   -1.7923   -3.7386   -2.6193 H   0  0  0  0  0  0
   -2.1980   -2.1691   -3.2193 H   0  0  0  0  0  0
   -3.0987   -1.5181   -0.9402 H   0  0  0  0  0  0
   -0.4234   -2.2845   -0.2171 H   0  0  0  0  0  0
    0.7866    0.9762   -0.6963 H   0  0  0  0  0  0
    1.6218   -1.3075   -2.4969 H   0  0  0  0  0  0
    2.0199    0.4010   -2.6066 H   0  0  0  0  0  0
    3.8158   -1.3500   -1.6466 H   0  0  0  0  0  0
    2.5230   -2.3698    0.0060 H   0  0  0  0  0  0
    3.3175   -1.0910    0.9898 H   0  0  0  0  0  0
    0.4409    1.6988    1.2286 H   0  0  0  0  0  0
   -0.0623    2.4262    3.4820 H   0  0  0  0  0  0
    0.0983    0.8463    5.3755 H   0  0  0  0  0  0
    0.6907   -1.4922    4.9770 H   0  0  0  0  0  0
    6.3027   -0.6123   -1.6315 H   0  0  0  0  0  0
    8.3202   -1.5078   -0.5750 H   0  0  0  0  0  0
    8.7654   -1.0721    1.8169 H   0  0  0  0  0  0
    7.2101    0.2522    3.1368 H   0  0  0  0  0  0
   -3.2326    0.8251    3.2387 H   0  0  0  0  0  0
   -3.1945    0.6049    5.7250 H   0  0  0  0  0  0
   -2.8098   -1.5718    6.7917 H   0  0  0  0  0  0
   -2.4578   -3.6226    5.4377 H   0  0  0  0  0  0
  1  2  1  0  0  0
  1 45  1  0  0  0
  1 46  1  0  0  0
  1 47  1  0  0  0
  2  3  1  0  0  0
  2 48  1  0  0  0
  2 49  1  0  0  0
  3  4  1  0  0  0
  3 34  1  0  0  0
  3 50  1  0  0  0
  4  5  1  0  0  0
  4 51  1  0  0  0
  5  6  2  0  0  0
  5  7  1  0  0  0
  7  8  1  0  0  0
  7 11  1  0  0  0
  7 52  1  0  0  0
  8  9  1  0  0  0
  8 53  1  0  0  0
  8 54  1  0  0  0
  9 10  1  0  0  0
  9 21  1  0  0  0
  9 55  1  0  0  0
 10 11  1  0  0  0
 10 56  1  0  0  0
 10 57  1  0  0  0
 11 12  1  0  0  0
 12 13  2  0  0  0
 12 17  1  0  0  0
 13 14  1  0  0  0
 13 58  1  0  0  0
 14 15  2  0  0  0
 14 59  1  0  0  0
 15 16  1  0  0  0
 15 60  1  0  0  0
 16 17  2  0  0  0
 16 61  1  0  0  0
 17 18  1  0  0  0
 18 19  2  0  0  0
 18 20  1  0  0  0
 21 22  2  0  0  0
 21 23  2  0  0  0
 21 24  1  0  0  0
 24 25  2  0  0  0
 24 29  1  0  0  0
 25 26  1  0  0  0
 25 62  1  0  0  0
 26 27  2  0  0  0
 26 63  1  0  0  0
 27 28  1  0  0  0
 27 64  1  0  0  0
 28 29  2  0  0  0
 28 65  1  0  0  0
 29 30  1  0  0  0
 30 31  1  0  0  0
 30 32  1  0  0  0
 30 33  1  0  0  0
 34 35  2  0  0  0
 34 36  1  0  0  0
 36 37  1  0  0  0
 36 44  2  0  0  0
 37 38  1  0  0  0
 38 39  2  0  0  0
 38 43  1  0  0  0
 39 40  1  0  0  0
 39 66  1  0  0  0
 40 41  2  0  0  0
 40 67  1  0  0  0
 41 42  1  0  0  0
 41 68  1  0  0  0
 42 43  2  0  0  0
 42 69  1  0  0  0
 43 44  1  0  0  0
M  CHG  2  18   1  20  -1
M  END
> <chembl_id>
CHEMBL3649366

> <chembl_pref_name>
None

> <i_m_ct_stereo_status>
1

> <s_m_source_file>
sdf/inactives_sanitized.sdf

> <i_m_source_file_index>
14

> <i_lp_mmshare_version>
49012

> <i_f3d_flags>
0

> <s_epik_input>
W2NIXTFbY0hdW2NIXVtjSF1jKGMxMiluYyhvMilDKD1PKVtDQEhdKFtDSDJdW0NIM10pW05IXUMoPU8pW0NAQEhdM1tDSDJdW0NAQEhdKFMoPU8pKD1PKWM0W2NIXVtjSF1bY0hdW2NIXWM0QyhGKShGKUYpW0NIMl1OM2M1W2NIXVtjSF1bY0hdW2NIXWM1W04rXSg9TylbTy1d

> <s_epik_cmdline>
J2VwaWtfcHl0aG9uJywgJy1waHQnLCAnMC41JywgJy1waCcsICc3LjUnLCAnLW50JywgJy1tYScsICcyMDAnLCAnLWltYWUnLCAnPGluZmlsZS5tYWU+JywgJy1vbWFlJywgJzxvdXRmaWxlLm1hZT4n

> <r_lp_tautomer_probability>
1

> <r_epik_Ionization_Penalty>
  0.0000

> <r_epik_Ionization_Penalty_Charging>
  0.0000

> <r_epik_Ionization_Penalty_Neutral>
  0.0000

> <r_epik_State_Penalty>
 -0.0000

> <r_epik_Charging_Adjusted_Penalty>
0

> <i_epik_Tot_Q>
0

> <i_epik_Tot_abs_Q>
2

> <s_lp_Force_Field>
OPLS3e

> <r_lp_Energy>
60.980869

> <b_lp_Chiralities_Consistent>
1

> <s_lp_Variant>
sdf/inactives_sanitized.sdf:14-1

$$$$
sdf/inactives_sanitized.sdf:15
                    3D
 Schrodinger Suite 2020-1.
 65 67  0  0  1  0            999 V2000
   -3.2651    1.5665    0.7729 N   0  0  2  0  0  0
   -1.0958    0.6379   -0.0615 C   0  0  0  0  0  0
   -0.1973   -0.2322    0.4380 N   0  0  0  0  0  0
   -2.5887    0.3473    0.2492 C   0  0  2  0  0  0
   -2.7355    1.9766    2.0935 C   0  0  0  0  0  0
   -3.1621    3.3839    2.5653 C   0  0  0  0  0  0
    1.6031   -0.7260   -1.1485 C   0  0  0  0  0  0
    1.2542   -0.1762    0.2304 C   0  0  2  0  0  0
    2.0173    0.0255   -2.1874 C   0  0  0  0  0  0
   -0.7742    1.6131   -0.7447 O   0  0  0  0  0  0
   -3.7833    3.4719    3.6255 O   0  0  0  0  0  0
   -2.8949    4.5603    1.6774 C   0  0  0  0  0  0
    2.3607   -0.4468   -3.5451 C   0  0  0  0  0  0
    2.9898   -1.2432   -6.1466 C   0  0  0  0  0  0
    2.0318   -0.8604    1.3971 C   0  0  2  0  0  0
   -4.7282    1.3777    0.8674 C   0  0  0  0  0  0
    3.3773   -1.7345   -7.7551 Cl  0  0  0  0  0  0
    2.5918    0.5076   -4.5413 C   0  0  0  0  0  0
    2.4485   -1.8082   -3.8673 C   0  0  0  0  0  0
    2.7625   -2.2047   -5.1647 C   0  0  0  0  0  0
    2.9059    0.1126   -5.8388 C   0  0  0  0  0  0
   -3.2193   -0.2040   -1.0636 C   0  0  0  0  0  0
   -1.8531    4.5414    0.7405 C   0  0  0  0  0  0
   -3.6665    5.7219    1.8196 C   0  0  0  0  0  0
    1.6509   -0.2730    2.7867 C   0  0  0  0  0  0
    3.5630   -0.8169    1.1738 C   0  0  0  0  0  0
   -5.3714    0.9148   -0.4520 C   0  0  0  0  0  0
    2.2276   -1.0297    3.9950 C   0  0  0  0  0  0
   -4.7370   -0.3818   -0.9587 C   0  0  0  0  0  0
   -1.6085    5.6512   -0.0634 C   0  0  0  0  0  0
   -3.4210    6.8325    1.0162 C   0  0  0  0  0  0
   -2.3952    6.7912    0.0758 C   0  0  0  0  0  0
   -0.5419   -1.0452    0.9271 H   0  0  0  0  0  0
   -2.6133   -0.4378    1.0099 H   0  0  0  0  0  0
   -3.0330    1.2408    2.8428 H   0  0  0  0  0  0
   -1.6462    1.9580    2.0976 H   0  0  0  0  0  0
    1.4862   -1.7935   -1.2584 H   0  0  0  0  0  0
    1.5515    0.8760    0.2586 H   0  0  0  0  0  0
    2.1140    1.0901   -2.0241 H   0  0  0  0  0  0
    1.7424   -1.9132    1.4022 H   0  0  0  0  0  0
   -4.9434    0.6524    1.6546 H   0  0  0  0  0  0
   -5.2040    2.3087    1.1774 H   0  0  0  0  0  0
    2.5258    1.5625   -4.3162 H   0  0  0  0  0  0
    2.2781   -2.5716   -3.1235 H   0  0  0  0  0  0
    2.8279   -3.2557   -5.4055 H   0  0  0  0  0  0
    3.0810    0.8575   -6.6012 H   0  0  0  0  0  0
   -3.0125    0.4678   -1.9003 H   0  0  0  0  0  0
   -2.7628   -1.1584   -1.3325 H   0  0  0  0  0  0
   -1.2169    3.6776    0.6313 H   0  0  0  0  0  0
   -4.4663    5.7722    2.5453 H   0  0  0  0  0  0
    1.9592    0.7723    2.8393 H   0  0  0  0  0  0
    0.5670   -0.2629    2.9043 H   0  0  0  0  0  0
    3.9356    0.2081    1.1772 H   0  0  0  0  0  0
    3.8484   -1.2677    0.2231 H   0  0  0  0  0  0
    4.1019   -1.3680    1.9440 H   0  0  0  0  0  0
   -6.4391    0.7577   -0.2950 H   0  0  0  0  0  0
   -5.3025    1.7080   -1.1982 H   0  0  0  0  0  0
    1.8394   -0.6179    4.9271 H   0  0  0  0  0  0
    3.3139   -0.9566    4.0415 H   0  0  0  0  0  0
    1.9597   -2.0861    3.9656 H   0  0  0  0  0  0
   -4.9667   -1.1990   -0.2733 H   0  0  0  0  0  0
   -5.1562   -0.6585   -1.9271 H   0  0  0  0  0  0
   -0.8076    5.6289   -0.7877 H   0  0  0  0  0  0
   -4.0227    7.7230    1.1234 H   0  0  0  0  0  0
   -2.2040    7.6528   -0.5467 H   0  0  0  0  0  0
  1  4  1  0  0  0
  1  5  1  0  0  0
  1 16  1  0  0  0
  2  4  1  0  0  0
  2  3  1  0  0  0
  2 10  2  0  0  0
  3  8  1  0  0  0
  3 33  1  0  0  0
  4 22  1  0  0  0
  4 34  1  0  0  0
  5  6  1  0  0  0
  5 35  1  0  0  0
  5 36  1  0  0  0
  6 11  2  0  0  0
  6 12  1  0  0  0
  7  8  1  0  0  0
  7  9  2  0  0  0
  7 37  1  0  0  0
  8 15  1  0  0  0
  8 38  1  0  0  0
  9 13  1  0  0  0
  9 39  1  0  0  0
 12 23  2  0  0  0
 12 24  1  0  0  0
 13 18  1  0  0  0
 13 19  2  0  0  0
 14 20  2  0  0  0
 14 17  1  0  0  0
 14 21  1  0  0  0
 15 25  1  0  0  0
 15 26  1  0  0  0
 15 40  1  0  0  0
 16 27  1  0  0  0
 16 41  1  0  0  0
 16 42  1  0  0  0
 18 21  2  0  0  0
 18 43  1  0  0  0
 19 20  1  0  0  0
 19 44  1  0  0  0
 20 45  1  0  0  0
 21 46  1  0  0  0
 22 29  1  0  0  0
 22 47  1  0  0  0
 22 48  1  0  0  0
 23 30  1  0  0  0
 23 49  1  0  0  0
 24 31  2  0  0  0
 24 50  1  0  0  0
 25 28  1  0  0  0
 25 51  1  0  0  0
 25 52  1  0  0  0
 26 53  1  0  0  0
 26 54  1  0  0  0
 26 55  1  0  0  0
 27 29  1  0  0  0
 27 56  1  0  0  0
 27 57  1  0  0  0
 28 58  1  0  0  0
 28 59  1  0  0  0
 28 60  1  0  0  0
 29 61  1  0  0  0
 29 62  1  0  0  0
 30 32  2  0  0  0
 30 63  1  0  0  0
 31 32  1  0  0  0
 31 64  1  0  0  0
 32 65  1  0  0  0
M  END
> <chembl_id>
CHEMBL329731

> <chembl_pref_name>
None

> <i_m_ct_stereo_status>
1

> <s_m_source_file>
sdf/inactives_sanitized.sdf

> <i_m_source_file_index>
15

> <i_lp_mmshare_version>
49012

> <i_f3d_flags>
0

> <s_epik_input>
W2NIXTFbY0hdW2NIXVtjSF1bY0hdYzFDKD1PKVtDSDJdTjJbQ0BASF0oW0NIMl1bQ0gyXVtDSDJdW0NIMl0yKUMoPU8pW05IXVtDQEBIXShbQ0BASF0oW0NIM10pW0NIMl1bQ0gzXSkvW0NIXT1bQ0hdL2MzW2NIXVtjSF1jKENsKVtjSF1bY0hdMw==

> <s_epik_cmdline>
J2VwaWtfcHl0aG9uJywgJy1waHQnLCAnMC41JywgJy1waCcsICc3LjUnLCAnLW50JywgJy1tYScsICcyMDAnLCAnLWltYWUnLCAnPGluZmlsZS5tYWU+JywgJy1vbWFlJywgJzxvdXRmaWxlLm1hZT4n

> <r_lp_tautomer_probability>
0.99990000499975

> <r_epik_Ionization_Penalty>
  0.0200

> <r_epik_Ionization_Penalty_Charging>
  0.0000

> <r_epik_Ionization_Penalty_Neutral>
  0.0200

> <r_epik_State_Penalty>
  0.0160

> <r_epik_Charging_Adjusted_Penalty>
0.0159694935013267

> <i_epik_Tot_Q>
0

> <i_epik_Tot_abs_Q>
0

> <s_lp_Force_Field>
OPLS3e

> <r_lp_Energy>
35.702741

> <b_lp_Chiralities_Consistent>
1

> <s_lp_Variant>
sdf/inactives_sanitized.sdf:15-1

$$$$
sdf/inactives_sanitized.sdf:16
                    3D
 Schrodinger Suite 2020-1.
 64 66  0  0  1  0            999 V2000
    1.6134   -0.0021   -4.6621 C   0  0  0  0  0  0
    0.8647   -1.1507   -4.4208 C   0  0  0  0  0  0
    0.1880   -1.3354   -3.2061 C   0  0  0  0  0  0
    0.2946   -0.3440   -2.2082 C   0  0  0  0  0  0
    1.0442    0.8168   -2.4704 C   0  0  0  0  0  0
    1.6995    0.9847   -3.6871 C   0  0  0  0  0  0
   -0.3397   -0.5741   -0.9943 O   0  0  0  0  0  0
   -0.0212    0.1782    0.1881 C   0  0  2  0  0  0
    1.4345   -0.1080    0.6203 C   0  0  0  0  0  0
    2.1816    0.9597    0.9554 N   0  0  0  0  0  0
    1.8722   -1.2599    0.5918 O   0  0  0  0  0  0
   -1.0167   -0.2545    1.2934 C   0  0  0  0  0  0
   -2.5156   -0.0641    0.9478 C   0  0  0  0  0  0
   -2.8938    1.4095    0.7017 C   0  0  0  0  0  0
   -3.4134   -0.6834    2.0343 C   0  0  0  0  0  0
    3.6223    0.9337    1.2207 C   0  0  0  0  0  0
    4.4680    1.0726   -0.0627 C   0  0  0  0  0  0
    4.3374   -0.0618   -0.9719 N   0  0  0  0  0  0
    4.9608   -0.0904   -2.2291 C   0  0  0  0  0  0
    4.6134   -1.1264   -3.0966 C   0  0  0  0  0  0
    5.1796   -1.2014   -4.3659 C   0  0  0  0  0  0
    6.1100   -0.2369   -4.7825 C   0  0  0  0  0  0
    6.4584    0.7940   -3.9092 C   0  0  0  0  0  0
    5.8912    0.8713   -2.6402 C   0  0  0  0  0  0
    6.7220   -0.2293   -6.0212 O   0  0  0  0  0  0
    6.4019   -1.2503   -6.9599 C   0  0  0  0  0  0
   -0.6056   -2.5835   -2.9963 C   0  0  0  0  0  0
   -0.0611   -3.8321   -3.3249 C   0  0  0  0  0  0
   -0.7924   -5.0004   -3.1266 C   0  0  0  0  0  0
   -2.0792   -4.9275   -2.6011 C   0  0  0  0  0  0
   -2.6392   -3.6961   -2.2734 C   0  0  0  0  0  0
   -1.9044   -2.5306   -2.4719 C   0  0  0  0  0  0
    2.1270    0.1224   -5.6042 H   0  0  0  0  0  0
    0.8039   -1.9015   -5.1955 H   0  0  0  0  0  0
    1.1400    1.6004   -1.7357 H   0  0  0  0  0  0
    2.2808    1.8763   -3.8702 H   0  0  0  0  0  0
   -0.1625    1.2446    0.0062 H   0  0  0  0  0  0
    1.7387    1.8663    0.9892 H   0  0  0  0  0  0
   -0.8495   -1.3084    1.5265 H   0  0  0  0  0  0
   -0.7978    0.2913    2.2133 H   0  0  0  0  0  0
   -2.7207   -0.6099    0.0257 H   0  0  0  0  0  0
   -2.6628    2.0306    1.5679 H   0  0  0  0  0  0
   -3.9596    1.5131    0.4959 H   0  0  0  0  0  0
   -2.3664    1.8240   -0.1572 H   0  0  0  0  0  0
   -3.2772   -0.1875    2.9963 H   0  0  0  0  0  0
   -3.1928   -1.7424    2.1731 H   0  0  0  0  0  0
   -4.4682   -0.6066    1.7676 H   0  0  0  0  0  0
    3.8579    1.7550    1.8978 H   0  0  0  0  0  0
    3.8938    0.0196    1.7536 H   0  0  0  0  0  0
    4.1977    1.9920   -0.5845 H   0  0  0  0  0  0
    5.5223    1.1786    0.1958 H   0  0  0  0  0  0
    3.5556   -0.6853   -0.8224 H   0  0  0  0  0  0
    3.8929   -1.8743   -2.7961 H   0  0  0  0  0  0
    4.8817   -2.0130   -5.0120 H   0  0  0  0  0  0
    7.1735    1.5427   -4.2177 H   0  0  0  0  0  0
    6.1811    1.6841   -1.9912 H   0  0  0  0  0  0
    6.9746   -1.0905   -7.8734 H   0  0  0  0  0  0
    5.3438   -1.2314   -7.2255 H   0  0  0  0  0  0
    6.6581   -2.2401   -6.5790 H   0  0  0  0  0  0
    0.9396   -3.9019   -3.7265 H   0  0  0  0  0  0
   -0.3622   -5.9590   -3.3771 H   0  0  0  0  0  0
   -2.6477   -5.8330   -2.4473 H   0  0  0  0  0  0
   -3.6391   -3.6440   -1.8686 H   0  0  0  0  0  0
   -2.3541   -1.5804   -2.2231 H   0  0  0  0  0  0
  1  6  2  0  0  0
  1  2  1  0  0  0
  1 33  1  0  0  0
  2  3  2  0  0  0
  2 34  1  0  0  0
  3  4  1  0  0  0
  3 27  1  0  0  0
  4  5  2  0  0  0
  4  7  1  0  0  0
  5  6  1  0  0  0
  5 35  1  0  0  0
  6 36  1  0  0  0
  7  8  1  0  0  0
  8  9  1  0  0  0
  8 12  1  0  0  0
  8 37  1  0  0  0
  9 10  1  0  0  0
  9 11  2  0  0  0
 10 16  1  0  0  0
 10 38  1  0  0  0
 12 13  1  0  0  0
 12 39  1  0  0  0
 12 40  1  0  0  0
 13 14  1  0  0  0
 13 15  1  0  0  0
 13 41  1  0  0  0
 14 42  1  0  0  0
 14 43  1  0  0  0
 14 44  1  0  0  0
 15 45  1  0  0  0
 15 46  1  0  0  0
 15 47  1  0  0  0
 16 17  1  0  0  0
 16 48  1  0  0  0
 16 49  1  0  0  0
 17 18  1  0  0  0
 17 50  1  0  0  0
 17 51  1  0  0  0
 18 19  1  0  0  0
 18 52  1  0  0  0
 19 20  2  0  0  0
 19 24  1  0  0  0
 20 21  1  0  0  0
 20 53  1  0  0  0
 21 22  2  0  0  0
 21 54  1  0  0  0
 22 23  1  0  0  0
 22 25  1  0  0  0
 23 24  2  0  0  0
 23 55  1  0  0  0
 24 56  1  0  0  0
 25 26  1  0  0  0
 26 57  1  0  0  0
 26 58  1  0  0  0
 26 59  1  0  0  0
 27 28  2  0  0  0
 27 32  1  0  0  0
 28 29  1  0  0  0
 28 60  1  0  0  0
 29 30  2  0  0  0
 29 61  1  0  0  0
 30 31  1  0  0  0
 30 62  1  0  0  0
 31 32  2  0  0  0
 31 63  1  0  0  0
 32 64  1  0  0  0
M  END
> <chembl_id>
CHEMBL203941

> <chembl_pref_name>
None

> <s_m_source_file>
sdf/inactives_sanitized.sdf

> <i_m_source_file_index>
16

> <i_lp_mmshare_version>
49012

> <i_m_ct_stereo_status>
1

> <i_f3d_flags>
0

> <s_epik_input>
W2NIXTFbY0hdW2NIXVtjSF1bY0hdYzEtYzJbY0hdW2NIXVtjSF1bY0hdYzJPW0NAQEhdKFtDSDJdW0NIXShbQ0gzXSlbQ0gzXSlDKD1PKVtOSF1bQ0gyXVtDSDJdW05IXWMzW2NIXVtjSF1jKFtjSF1bY0hdMylPW0NIM10=

> <s_epik_cmdline>
J2VwaWtfcHl0aG9uJywgJy1waHQnLCAnMC41JywgJy1waCcsICc3LjUnLCAnLW50JywgJy1tYScsICcyMDAnLCAnLWltYWUnLCAnPGluZmlsZS5tYWU+JywgJy1vbWFlJywgJzxvdXRmaWxlLm1hZT4n

> <r_lp_tautomer_probability>
1

> <r_epik_Ionization_Penalty>
  0.0016

> <r_epik_Ionization_Penalty_Charging>
  0.0000

> <r_epik_Ionization_Penalty_Neutral>
  0.0016

> <r_epik_State_Penalty>
 -0.0000

> <r_epik_Charging_Adjusted_Penalty>
0

> <i_epik_Tot_Q>
0

> <i_epik_Tot_abs_Q>
0

> <s_lp_Force_Field>
OPLS3e

> <r_lp_Energy>
43.246739

> <b_lp_Chiralities_Consistent>
1

> <s_lp_Variant>
sdf/inactives_sanitized.sdf:16-1

$$$$
sdf/inactives_sanitized.sdf:17
                    3D
 Schrodinger Suite 2020-1.
 58 58  0  0  1  0            999 V2000
    2.0488   -1.0689   -1.4403 C   0  0  0  0  0  0
   -0.5281    1.1790   -0.2049 C   0  0  0  0  0  0
    3.6298   -1.2040   -1.3976 C   0  0  0  0  0  0
    0.0492   -0.0152   -0.6176 N   0  0  0  0  0  0
    6.1647   -4.9647    0.1779 N   0  0  0  0  0  0
    6.0430   -3.4161   -1.5616 C   0  0  0  0  0  0
    1.4246   -0.3745   -0.2249 C   0  0  1  0  0  0
   -1.8114    1.2071   -0.6293 O   0  0  0  0  0  0
    7.6921   -3.9849   -1.6394 S   0  0  0  0  0  0
   -2.6963    2.2973   -0.3367 C   0  0  0  0  0  0
    4.1002   -2.0539   -2.3305 N   0  0  0  0  0  0
    7.3781   -5.0238   -0.2950 C   0  0  0  0  0  0
    5.4365   -4.1002   -0.4993 C   0  0  0  0  0  0
    1.4154   -1.5119   -2.4068 O   0  0  0  0  0  0
    0.0174    2.0702    0.4503 O   0  0  0  0  0  0
    4.3101   -0.5890   -0.5745 O   0  0  0  0  0  0
    5.5137   -2.3726   -2.5298 C   0  0  0  0  0  0
   -3.6396    1.9143    0.8473 C   0  0  0  0  0  0
   -3.4084    2.7056   -1.6627 C   0  0  0  0  0  0
    1.4632   -1.3136    1.0152 C   0  0  0  0  0  0
   -2.3945    3.1315   -2.7466 C   0  0  0  0  0  0
   -4.4590    3.8198   -1.4723 C   0  0  0  0  0  0
   -2.8770    1.7133    2.1721 C   0  0  0  0  0  0
   -4.5414    0.6989    0.5477 C   0  0  0  0  0  0
    0.8822   -0.6910    2.3007 C   0  0  0  0  0  0
    1.0433   -1.5975    3.5330 C   0  0  0  0  0  0
    0.4511   -0.9801    4.8070 C   0  0  0  0  0  0
   -0.5404   -0.7334   -1.0122 H   0  0  0  0  0  0
    2.0001    0.5309   -0.0155 H   0  0  0  0  0  0
   -2.1238    3.1736   -0.0258 H   0  0  0  0  0  0
    3.4438   -2.4959   -2.9581 H   0  0  0  0  0  0
    8.1447   -5.6671    0.1104 H   0  0  0  0  0  0
    4.4088   -3.9606   -0.1981 H   0  0  0  0  0  0
    6.1167   -1.4634   -2.4848 H   0  0  0  0  0  0
    5.6331   -2.7236   -3.5552 H   0  0  0  0  0  0
   -4.2967    2.7643    1.0302 H   0  0  0  0  0  0
   -3.9334    1.8318   -2.0518 H   0  0  0  0  0  0
    0.9114   -2.2307    0.7987 H   0  0  0  0  0  0
    2.4922   -1.6139    1.2214 H   0  0  0  0  0  0
   -1.8072    3.9930   -2.4261 H   0  0  0  0  0  0
   -2.8963    3.4011   -3.6767 H   0  0  0  0  0  0
   -1.6972    2.3281   -2.9857 H   0  0  0  0  0  0
   -4.0213    4.7057   -1.0107 H   0  0  0  0  0  0
   -5.2910    3.4923   -0.8493 H   0  0  0  0  0  0
   -4.8902    4.1244   -2.4267 H   0  0  0  0  0  0
   -2.2427    0.8273    2.1440 H   0  0  0  0  0  0
   -3.5661    1.5915    3.0084 H   0  0  0  0  0  0
   -2.2419    2.5708    2.3980 H   0  0  0  0  0  0
   -3.9529   -0.1982    0.3517 H   0  0  0  0  0  0
   -5.1794    0.8740   -0.3184 H   0  0  0  0  0  0
   -5.2009    0.4819    1.3886 H   0  0  0  0  0  0
    1.3677    0.2674    2.4917 H   0  0  0  0  0  0
   -0.1778   -0.4802    2.1586 H   0  0  0  0  0  0
    0.5630   -2.5589    3.3461 H   0  0  0  0  0  0
    2.1005   -1.8102    3.6972 H   0  0  0  0  0  0
    0.5819   -1.6473    5.6592 H   0  0  0  0  0  0
   -0.6170   -0.7907    4.6955 H   0  0  0  0  0  0
    0.9353   -0.0338    5.0502 H   0  0  0  0  0  0
  1  3  1  0  0  0
  1  7  1  0  0  0
  1 14  2  0  0  0
  2  4  1  0  0  0
  2  8  1  0  0  0
  2 15  2  0  0  0
  3 11  1  0  0  0
  3 16  2  0  0  0
  4  7  1  0  0  0
  4 28  1  0  0  0
  5 13  1  0  0  0
  5 12  2  0  0  0
  6 17  1  0  0  0
  6  9  1  0  0  0
  6 13  2  0  0  0
  7 20  1  0  0  0
  7 29  1  0  0  0
  8 10  1  0  0  0
  9 12  1  0  0  0
 10 18  1  0  0  0
 10 19  1  0  0  0
 10 30  1  0  0  0
 11 17  1  0  0  0
 11 31  1  0  0  0
 12 32  1  0  0  0
 13 33  1  0  0  0
 17 34  1  0  0  0
 17 35  1  0  0  0
 18 23  1  0  0  0
 18 24  1  0  0  0
 18 36  1  0  0  0
 19 21  1  0  0  0
 19 22  1  0  0  0
 19 37  1  0  0  0
 20 25  1  0  0  0
 20 38  1  0  0  0
 20 39  1  0  0  0
 21 40  1  0  0  0
 21 41  1  0  0  0
 21 42  1  0  0  0
 22 43  1  0  0  0
 22 44  1  0  0  0
 22 45  1  0  0  0
 23 46  1  0  0  0
 23 47  1  0  0  0
 23 48  1  0  0  0
 24 49  1  0  0  0
 24 50  1  0  0  0
 24 51  1  0  0  0
 25 26  1  0  0  0
 25 52  1  0  0  0
 25 53  1  0  0  0
 26 27  1  0  0  0
 26 54  1  0  0  0
 26 55  1  0  0  0
 27 56  1  0  0  0
 27 57  1  0  0  0
 27 58  1  0  0  0
M  END
> <chembl_id>
CHEMBL87961

> <chembl_pref_name>
None

> <i_m_ct_stereo_status>
1

> <s_m_source_file>
sdf/inactives_sanitized.sdf

> <i_m_source_file_index>
17

> <i_lp_mmshare_version>
49012

> <i_f3d_flags>
0

> <s_epik_input>
W0NIM11bQ0hdKFtDSDNdKVtDSF0oW0NIXShbQ0gzXSlbQ0gzXSlPQyg9TylbTkhdW0NAQEhdKFtDSDJdW0NIMl1bQ0gyXVtDSDNdKUMoPU8pQyg9TylbTkhdW0NIMl1jMXNbY0hdbltjSF0x

> <s_epik_cmdline>
J2VwaWtfcHl0aG9uJywgJy1waHQnLCAnMC41JywgJy1waCcsICc3LjUnLCAnLW50JywgJy1tYScsICcyMDAnLCAnLWltYWUnLCAnPGluZmlsZS5tYWU+JywgJy1vbWFlJywgJzxvdXRmaWxlLm1hZT4n

> <r_lp_tautomer_probability>
1

> <r_epik_Ionization_Penalty>
  0.0000

> <r_epik_Ionization_Penalty_Charging>
  0.0000

> <r_epik_Ionization_Penalty_Neutral>
  0.0000

> <r_epik_State_Penalty>
 -0.0000

> <r_epik_Charging_Adjusted_Penalty>
0

> <i_epik_Tot_Q>
0

> <i_epik_Tot_abs_Q>
0

> <s_epik_Chemistry_Notes>
This compound has an ester and may undergo hydrolysis at high or low pH.

> <s_lp_Force_Field>
OPLS3e

> <r_lp_Energy>
19.806658

> <b_lp_Chiralities_Consistent>
1

> <s_lp_Variant>
sdf/inactives_sanitized.sdf:17-1

$$$$
sdf/inactives_sanitized.sdf:18
                    3D
 Schrodinger Suite 2020-1.
 48 50  0  0  1  0            999 V2000
   -0.7433    2.0839   -1.0998 C   0  0  0  0  0  0
   -1.1888    3.4107   -1.1686 C   0  0  0  0  0  0
   -1.4329    4.0884    0.0346 C   0  0  0  0  0  0
   -1.2235    3.4651    1.2647 C   0  0  0  0  0  0
   -0.7541    2.1541    1.3122 C   0  0  0  0  0  0
   -0.5037    1.4580    0.1278 C   0  0  0  0  0  0
    0.0570    0.0392    0.1683 C   0  0  0  0  0  0
    1.6072   -0.0094    0.0474 C   0  0  2  0  0  0
    2.1062    0.6212   -1.1806 N   0  0  0  0  0  0
    2.1110   -1.4639    0.1018 C   0  0  0  0  0  0
    1.8886   -2.2249   -0.8419 O   0  0  0  0  0  0
    2.7469   -1.8374    1.2247 N   0  0  0  0  0  0
    3.3237   -3.1622    1.4307 C   0  0  0  0  0  0
    4.4516   -3.4434    0.5244 C   0  0  0  0  0  0
    5.3373   -3.6638   -0.1869 N   0  0  0  0  0  0
    2.6135    1.8650   -1.2845 C   0  0  0  0  0  0
    2.7335    2.6293   -0.3246 O   0  0  0  0  0  0
    2.9686    2.3178   -2.6814 C   0  0  0  0  0  0
    2.9169    3.6820   -3.0006 C   0  0  0  0  0  0
    3.2265    4.1180   -4.2859 C   0  0  0  0  0  0
    3.5948    3.1931   -5.2587 C   0  0  0  0  0  0
    3.6572    1.8356   -4.9573 C   0  0  0  0  0  0
    3.3460    1.3978   -3.6727 C   0  0  0  0  0  0
   -1.3715    4.0847   -2.4866 C   0  0  0  0  0  0
   -1.1341    5.4571   -2.6667 C   0  0  0  0  0  0
   -1.2756    6.0880   -3.8616 N   0  0  0  0  0  0
   -1.6690    5.3102   -4.9006 C   0  0  0  0  0  0
   -1.9292    3.9801   -4.8515 N   0  0  0  0  0  0
   -1.7744    3.3887   -3.6382 C   0  0  0  0  0  0
   -0.5325    1.5405   -2.0095 H   0  0  0  0  0  0
   -1.7887    5.1081    0.0251 H   0  0  0  0  0  0
   -1.4147    4.0032    2.1814 H   0  0  0  0  0  0
   -0.5752    1.6861    2.2693 H   0  0  0  0  0  0
   -0.2772   -0.4446    1.0885 H   0  0  0  0  0  0
   -0.4181   -0.5373   -0.6283 H   0  0  0  0  0  0
    2.0132    0.5236    0.9108 H   0  0  0  0  0  0
    2.0435    0.0519   -2.0120 H   0  0  0  0  0  0
    2.9076   -1.1528    1.9496 H   0  0  0  0  0  0
    3.6897   -3.2336    2.4549 H   0  0  0  0  0  0
    2.5675   -3.9391    1.3060 H   0  0  0  0  0  0
    2.6272    4.4140   -2.2596 H   0  0  0  0  0  0
    3.1800    5.1697   -4.5274 H   0  0  0  0  0  0
    3.8352    3.5318   -6.2558 H   0  0  0  0  0  0
    3.9460    1.1243   -5.7170 H   0  0  0  0  0  0
    3.4056    0.3397   -3.4599 H   0  0  0  0  0  0
   -0.8060    6.0800   -1.8475 H   0  0  0  0  0  0
   -1.7861    5.7960   -5.8579 H   0  0  0  0  0  0
   -1.9888    2.3306   -3.6061 H   0  0  0  0  0  0
  1  6  2  0  0  0
  1  2  1  0  0  0
  1 30  1  0  0  0
  2  3  2  0  0  0
  2 24  1  0  0  0
  3  4  1  0  0  0
  3 31  1  0  0  0
  4  5  2  0  0  0
  4 32  1  0  0  0
  5  6  1  0  0  0
  5 33  1  0  0  0
  6  7  1  0  0  0
  7  8  1  0  0  0
  7 34  1  0  0  0
  7 35  1  0  0  0
  8  9  1  0  0  0
  8 10  1  0  0  0
  8 36  1  0  0  0
  9 16  1  0  0  0
  9 37  1  0  0  0
 10 11  2  0  0  0
 10 12  1  0  0  0
 12 13  1  0  0  0
 12 38  1  0  0  0
 13 14  1  0  0  0
 13 39  1  0  0  0
 13 40  1  0  0  0
 14 15  3  0  0  0
 16 17  2  0  0  0
 16 18  1  0  0  0
 18 19  2  0  0  0
 18 23  1  0  0  0
 19 20  1  0  0  0
 19 41  1  0  0  0
 20 21  2  0  0  0
 20 42  1  0  0  0
 21 22  1  0  0  0
 21 43  1  0  0  0
 22 23  2  0  0  0
 22 44  1  0  0  0
 23 45  1  0  0  0
 24 25  2  0  0  0
 24 29  1  0  0  0
 25 26  1  0  0  0
 25 46  1  0  0  0
 26 27  2  0  0  0
 27 28  1  0  0  0
 27 47  1  0  0  0
 28 29  2  0  0  0
 29 48  1  0  0  0
M  END
> <chembl_id>
CHEMBL551533

> <chembl_pref_name>
None

> <i_m_ct_stereo_status>
1

> <s_m_source_file>
sdf/inactives_sanitized.sdf

> <i_m_source_file_index>
18

> <i_lp_mmshare_version>
49012

> <i_f3d_flags>
0

> <s_epik_input>
W2NIXTFuW2NIXW5bY0hdYzEtYzJbY0hdYyhbY0hdW2NIXVtjSF0yKVtDSDJdW0NAQEhdKEMoPU8pW05IXVtDSDJdQyNOKVtOSF1DKD1PKWMzW2NIXVtjSF1bY0hdW2NIXVtjSF0z

> <s_epik_cmdline>
J2VwaWtfcHl0aG9uJywgJy1waHQnLCAnMC41JywgJy1waCcsICc3LjUnLCAnLW50JywgJy1tYScsICcyMDAnLCAnLWltYWUnLCAnPGluZmlsZS5tYWU+JywgJy1vbWFlJywgJzxvdXRmaWxlLm1hZT4n

> <r_lp_tautomer_probability>
1

> <r_epik_Ionization_Penalty>
  0.0000

> <r_epik_Ionization_Penalty_Charging>
  0.0000

> <r_epik_Ionization_Penalty_Neutral>
  0.0000

> <r_epik_State_Penalty>
 -0.0000

> <r_epik_Charging_Adjusted_Penalty>
0

> <i_epik_Tot_Q>
0

> <i_epik_Tot_abs_Q>
0

> <s_lp_Force_Field>
OPLS3e

> <r_lp_Energy>
38.306717

> <b_lp_Chiralities_Consistent>
1

> <s_lp_Variant>
sdf/inactives_sanitized.sdf:18-1

$$$$
sdf/inactives_sanitized.sdf:19
                    3D
 Schrodinger Suite 2020-1.
 46 48  0  0  1  0            999 V2000
   -0.2155    1.4667    2.7304 C   0  0  0  0  0  0
    0.1739    2.1550    3.8804 C   0  0  0  0  0  0
    0.9760    1.5246    4.8323 C   0  0  0  0  0  0
    1.3855    0.2062    4.6353 C   0  0  0  0  0  0
    0.9971   -0.4816    3.4852 C   0  0  0  0  0  0
    0.2008    0.1463    2.5210 C   0  0  0  0  0  0
   -0.2021   -0.6079    1.2532 C   0  0  0  0  0  0
    0.1895    0.1198   -0.0660 C   0  0  2  0  0  0
   -0.3167   -0.5845   -1.2456 N   0  0  0  0  0  0
    1.7172    0.2969   -0.1902 C   0  0  0  0  0  0
    2.4306   -0.6720   -0.4567 O   0  0  0  0  0  0
    2.1947    1.5252    0.0701 N   0  0  0  0  0  0
    3.6153    1.8422    0.1632 C   0  0  0  0  0  0
    4.2558    1.2174    1.3345 C   0  0  0  0  0  0
    4.7572    0.7271    2.2549 N   0  0  0  0  0  0
   -1.5890   -0.5590   -1.6836 C   0  0  0  0  0  0
   -2.4830    0.0842   -1.1308 O   0  0  0  0  0  0
   -1.8630   -1.3668   -2.9335 C   0  0  0  0  0  0
   -0.3353    3.7860    4.1233 Cl  0  0  0  0  0  0
   -2.2887   -2.7682   -5.3530 C   0  0  0  0  0  0
   -1.1695   -1.9656   -5.1904 C   0  0  0  0  0  0
   -0.9616   -1.2790   -4.0033 C   0  0  0  0  0  0
   -3.2305   -2.9067   -4.3076 C   0  0  0  0  0  0
   -3.0281   -2.2077   -3.0709 C   0  0  0  0  0  0
   -3.9970   -2.4083   -2.0386 C   0  0  0  0  0  0
   -5.1016   -3.2313   -2.2340 C   0  0  0  0  0  0
   -5.2889   -3.8868   -3.4425 C   0  0  0  0  0  0
   -4.3691   -3.7352   -4.4729 C   0  0  0  0  0  0
   -0.8409    1.9620    2.0020 H   0  0  0  0  0  0
    1.2805    2.0541    5.7233 H   0  0  0  0  0  0
    2.0062   -0.2822    5.3721 H   0  0  0  0  0  0
    1.3278   -1.5000    3.3420 H   0  0  0  0  0  0
    0.2286   -1.6116    1.2623 H   0  0  0  0  0  0
   -1.2813   -0.7619    1.2980 H   0  0  0  0  0  0
   -0.2726    1.1095   -0.0603 H   0  0  0  0  0  0
    0.3650   -1.1335   -1.7491 H   0  0  0  0  0  0
    1.5482    2.2593    0.3208 H   0  0  0  0  0  0
    3.7317    2.9221    0.2527 H   0  0  0  0  0  0
    4.1464    1.5363   -0.7398 H   0  0  0  0  0  0
   -2.4415   -3.2966   -6.2832 H   0  0  0  0  0  0
   -0.4569   -1.8693   -5.9964 H   0  0  0  0  0  0
   -0.0825   -0.6541   -3.9299 H   0  0  0  0  0  0
   -3.8861   -1.9301   -1.0782 H   0  0  0  0  0  0
   -5.8189   -3.3635   -1.4374 H   0  0  0  0  0  0
   -6.1510   -4.5228   -3.5807 H   0  0  0  0  0  0
   -4.5191   -4.2559   -5.4079 H   0  0  0  0  0  0
  1  6  2  0  0  0
  1  2  1  0  0  0
  1 29  1  0  0  0
  2 19  1  0  0  0
  2  3  2  0  0  0
  3  4  1  0  0  0
  3 30  1  0  0  0
  4  5  2  0  0  0
  4 31  1  0  0  0
  5  6  1  0  0  0
  5 32  1  0  0  0
  6  7  1  0  0  0
  7  8  1  0  0  0
  7 33  1  0  0  0
  7 34  1  0  0  0
  8  9  1  0  0  0
  8 10  1  0  0  0
  8 35  1  0  0  0
  9 16  1  0  0  0
  9 36  1  0  0  0
 10 11  2  0  0  0
 10 12  1  0  0  0
 12 13  1  0  0  0
 12 37  1  0  0  0
 13 14  1  0  0  0
 13 38  1  0  0  0
 13 39  1  0  0  0
 14 15  3  0  0  0
 16 17  2  0  0  0
 16 18  1  0  0  0
 18 24  2  0  0  0
 18 22  1  0  0  0
 20 23  2  0  0  0
 20 21  1  0  0  0
 20 40  1  0  0  0
 21 22  2  0  0  0
 21 41  1  0  0  0
 22 42  1  0  0  0
 23 24  1  0  0  0
 23 28  1  0  0  0
 24 25  1  0  0  0
 25 26  2  0  0  0
 25 43  1  0  0  0
 26 27  1  0  0  0
 26 44  1  0  0  0
 27 28  2  0  0  0
 27 45  1  0  0  0
 28 46  1  0  0  0
M  END
> <chembl_id>
CHEMBL551121

> <chembl_pref_name>
None

> <i_m_ct_stereo_status>
1

> <s_m_source_file>
sdf/inactives_sanitized.sdf

> <i_m_source_file_index>
19

> <i_lp_mmshare_version>
49012

> <i_f3d_flags>
0

> <s_epik_input>
W2NIXTFbY0hdW2NIXWMoW2NIXWMxQ2wpW0NIMl1bQ0BASF0oQyg9TylbTkhdW0NIMl1DI04pW05IXUMoPU8pYyhbY0hdW2NIXVtjSF0yKWMoYzIzKVtjSF1bY0hdW2NIXVtjSF0z

> <s_epik_cmdline>
J2VwaWtfcHl0aG9uJywgJy1waHQnLCAnMC41JywgJy1waCcsICc3LjUnLCAnLW50JywgJy1tYScsICcyMDAnLCAnLWltYWUnLCAnPGluZmlsZS5tYWU+JywgJy1vbWFlJywgJzxvdXRmaWxlLm1hZT4n

> <r_lp_tautomer_probability>
1

> <r_epik_Ionization_Penalty>
  0.0000

> <r_epik_Ionization_Penalty_Charging>
  0.0000

> <r_epik_Ionization_Penalty_Neutral>
  0.0000

> <r_epik_State_Penalty>
 -0.0000

> <r_epik_Charging_Adjusted_Penalty>
0

> <i_epik_Tot_Q>
0

> <i_epik_Tot_abs_Q>
0

> <s_lp_Force_Field>
OPLS3e

> <r_lp_Energy>
36.458854

> <b_lp_Chiralities_Consistent>
1

> <s_lp_Variant>
sdf/inactives_sanitized.sdf:19-1

$$$$
sdf/inactives_sanitized.sdf:20
                    3D
 Schrodinger Suite 2020-1.
 60 61  0  0  1  0            999 V2000
    2.1013   -1.3091    2.0878 C   0  0  0  0  0  0
    2.0856   -1.2556    0.6985 N   0  0  0  0  0  0
    0.0744    0.1190    0.0349 C   0  0  0  0  0  0
    1.6122   -0.0580   -0.0190 C   0  0  2  0  0  0
    1.7829   -0.4000    2.8592 O   0  0  0  0  0  0
   -0.6611   -0.8657    0.1298 O   0  0  0  0  0  0
    2.5274   -2.5288    2.4680 O   0  0  0  0  0  0
    2.0977   -0.1266   -1.4930 C   0  0  0  0  0  0
   -0.3707    1.3835   -0.0602 N   0  0  0  0  0  0
   -1.8480    4.0716    3.0403 C   0  0  0  0  0  0
   -1.6624    2.9879    2.1643 N   0  0  0  0  0  0
    2.6493   -2.8624    3.8457 C   0  0  0  0  0  0
   -2.1505    6.1544    4.8795 C   0  0  0  0  0  0
   -1.2922    3.9697    4.3175 C   0  0  0  0  0  0
   -2.5602    5.2270    2.6886 C   0  0  0  0  0  0
   -2.7112    6.2630    3.6067 C   0  0  0  0  0  0
   -1.4413    5.0062    5.2355 C   0  0  0  0  0  0
    3.2195   -4.2633    3.9863 C   0  0  0  0  0  0
    3.6344   -0.1075   -1.6849 C   0  0  0  0  0  0
   -1.7789    1.7800   -0.0318 C   0  0  0  0  0  0
   -2.0087    3.0851    0.7491 C   0  0  0  0  0  0
   -2.3286    7.2845    5.8772 C   0  0  0  0  0  0
    2.4577   -5.2682    4.5875 C   0  0  0  0  0  0
    4.5080   -4.5414    3.5216 C   0  0  0  0  0  0
    4.2816    1.1836   -1.1384 C   0  0  0  0  0  0
    4.0128   -0.3708   -3.1584 C   0  0  0  0  0  0
    2.9832   -6.5510    4.7214 C   0  0  0  0  0  0
    5.0324   -5.8243    3.6551 C   0  0  0  0  0  0
    4.2677   -6.8231    4.2545 C   0  0  0  0  0  0
    2.2812   -2.0919    0.1682 H   0  0  0  0  0  0
    2.0632    0.8228    0.4442 H   0  0  0  0  0  0
    1.6903   -1.0274   -1.9574 H   0  0  0  0  0  0
    1.6781    0.7062   -2.0615 H   0  0  0  0  0  0
    0.3020    2.1275   -0.1770 H   0  0  0  0  0  0
   -0.9251    2.3403    2.4047 H   0  0  0  0  0  0
    3.3094   -2.1579    4.3547 H   0  0  0  0  0  0
    1.6742   -2.8022    4.3324 H   0  0  0  0  0  0
   -0.7409    3.0862    4.6066 H   0  0  0  0  0  0
   -3.0040    5.3386    1.7110 H   0  0  0  0  0  0
   -3.2639    7.1482    3.3271 H   0  0  0  0  0  0
   -1.0057    4.9130    6.2198 H   0  0  0  0  0  0
    4.0478   -0.9403   -1.1146 H   0  0  0  0  0  0
   -2.1284    1.8973   -1.0582 H   0  0  0  0  0  0
   -2.3977    0.9975    0.4136 H   0  0  0  0  0  0
   -3.0574    3.3738    0.6689 H   0  0  0  0  0  0
   -1.4498    3.9032    0.2924 H   0  0  0  0  0  0
   -2.0248    6.9953    6.8842 H   0  0  0  0  0  0
   -3.3772    7.5809    5.9248 H   0  0  0  0  0  0
   -1.7530    8.1576    5.5684 H   0  0  0  0  0  0
    1.4616   -5.0595    4.9499 H   0  0  0  0  0  0
    5.1006   -3.7664    3.0572 H   0  0  0  0  0  0
    3.5461    1.9714   -0.9745 H   0  0  0  0  0  0
    5.0402    1.5915   -1.8063 H   0  0  0  0  0  0
    4.7718    0.9918   -0.1835 H   0  0  0  0  0  0
    4.4832    0.4898   -3.6339 H   0  0  0  0  0  0
    3.1435   -0.6259   -3.7651 H   0  0  0  0  0  0
    4.7116   -1.2044   -3.2344 H   0  0  0  0  0  0
    2.3978   -7.3315    5.1848 H   0  0  0  0  0  0
    6.0272   -6.0439    3.2958 H   0  0  0  0  0  0
    4.6746   -7.8182    4.3584 H   0  0  0  0  0  0
  1  2  1  0  0  0
  1  5  2  0  0  0
  1  7  1  0  0  0
  2  4  1  0  0  0
  2 30  1  0  0  0
  3  4  1  0  0  0
  3  6  2  0  0  0
  3  9  1  0  0  0
  4  8  1  0  0  0
  4 31  1  0  0  0
  7 12  1  0  0  0
  8 19  1  0  0  0
  8 32  1  0  0  0
  8 33  1  0  0  0
  9 20  1  0  0  0
  9 34  1  0  0  0
 10 11  1  0  0  0
 10 14  1  0  0  0
 10 15  2  0  0  0
 11 21  1  0  0  0
 11 35  1  0  0  0
 12 18  1  0  0  0
 12 36  1  0  0  0
 12 37  1  0  0  0
 13 16  2  0  0  0
 13 22  1  0  0  0
 13 17  1  0  0  0
 14 17  2  0  0  0
 14 38  1  0  0  0
 15 16  1  0  0  0
 15 39  1  0  0  0
 16 40  1  0  0  0
 17 41  1  0  0  0
 18 23  2  0  0  0
 18 24  1  0  0  0
 19 25  1  0  0  0
 19 26  1  0  0  0
 19 42  1  0  0  0
 20 21  1  0  0  0
 20 43  1  0  0  0
 20 44  1  0  0  0
 21 45  1  0  0  0
 21 46  1  0  0  0
 22 47  1  0  0  0
 22 48  1  0  0  0
 22 49  1  0  0  0
 23 27  1  0  0  0
 23 50  1  0  0  0
 24 28  2  0  0  0
 24 51  1  0  0  0
 25 52  1  0  0  0
 25 53  1  0  0  0
 25 54  1  0  0  0
 26 55  1  0  0  0
 26 56  1  0  0  0
 26 57  1  0  0  0
 27 29  2  0  0  0
 27 58  1  0  0  0
 28 29  1  0  0  0
 28 59  1  0  0  0
 29 60  1  0  0  0
M  END
> <chembl_id>
CHEMBL308392

> <chembl_pref_name>
None

> <i_m_ct_stereo_status>
1

> <s_m_source_file>
sdf/inactives_sanitized.sdf

> <i_m_source_file_index>
20

> <i_lp_mmshare_version>
49012

> <i_f3d_flags>
0

> <s_epik_input>
W2NIXTFbY0hdW2NIXVtjSF1bY0hdYzFbQ0gyXU9DKD1PKVtOSF1bQ0BASF0oW0NIMl1bQ0hdKFtDSDNdKVtDSDNdKUMoPU8pW05IXVtDSDJdW0NIMl1bTkhdYzJbY0hdW2NIXWMoW0NIM10pW2NIXVtjSF0y

> <s_epik_cmdline>
J2VwaWtfcHl0aG9uJywgJy1waHQnLCAnMC41JywgJy1waCcsICc3LjUnLCAnLW50JywgJy1tYScsICcyMDAnLCAnLWltYWUnLCAnPGluZmlsZS5tYWU+JywgJy1vbWFlJywgJzxvdXRmaWxlLm1hZT4n

> <r_lp_tautomer_probability>
1

> <r_epik_Ionization_Penalty>
  0.0004

> <r_epik_Ionization_Penalty_Charging>
  0.0000

> <r_epik_Ionization_Penalty_Neutral>
  0.0004

> <r_epik_State_Penalty>
 -0.0000

> <r_epik_Charging_Adjusted_Penalty>
0

> <i_epik_Tot_Q>
0

> <i_epik_Tot_abs_Q>
0

> <s_epik_Chemistry_Notes>
This compound has an ester and may undergo hydrolysis at high or low pH.

> <s_lp_Force_Field>
OPLS3e

> <r_lp_Energy>
24.954179

> <b_lp_Chiralities_Consistent>
1

> <s_lp_Variant>
sdf/inactives_sanitized.sdf:20-1

$$$$
sdf/inactives_sanitized.sdf:21
                    3D
 Schrodinger Suite 2020-1.
 35 35  0  0  1  0            999 V2000
   -1.9545   -1.4812    0.5006 O   0  0  0  0  0  0
    2.1190   -0.6781    0.8646 N   0  0  0  0  0  0
    2.1016    0.0361   -1.4203 N   0  0  0  0  0  0
    0.1283   -0.8892   -0.4471 N   0  0  0  0  0  0
    4.0952    0.2523   -0.1145 N   0  0  0  0  0  0
    4.1125   -0.4605    2.1694 N   0  0  0  0  0  0
    4.0776    0.9629   -2.3994 N   0  0  0  0  0  0
   -0.9964   -0.8840   -2.6900 N   0  0  0  0  0  0
    1.4877   -0.5013   -0.3297 C   0  0  0  0  0  0
    3.4227   -0.2895    0.9393 C   0  0  0  0  0  0
    3.4065    0.4006   -1.2806 C   0  0  0  0  0  0
   -0.5706   -1.4909    0.6598 C   0  0  0  0  0  0
   -0.4523   -0.8847   -1.6680 C   0  0  0  0  0  0
    3.3848   -0.8664    3.3725 C   0  0  0  0  0  0
    5.4461    0.1142    2.3509 C   0  0  0  0  0  0
    5.5224    1.1910   -2.3534 C   0  0  0  0  0  0
    3.4372    0.9673   -3.7153 C   0  0  0  0  0  0
   -2.6531   -2.0785    1.5821 C   0  0  0  0  0  0
   -0.3258   -0.9602    1.5823 H   0  0  0  0  0  0
   -0.2157   -2.5154    0.7874 H   0  0  0  0  0  0
    2.7054   -1.6946    3.1682 H   0  0  0  0  0  0
    2.7847   -0.0351    3.7438 H   0  0  0  0  0  0
    4.0638   -1.1807    4.1657 H   0  0  0  0  0  0
    6.0925   -0.1019    1.4995 H   0  0  0  0  0  0
    5.9330   -0.2716    3.2472 H   0  0  0  0  0  0
    5.3750    1.1986    2.4396 H   0  0  0  0  0  0
    5.8217    1.6684   -1.4196 H   0  0  0  0  0  0
    5.8556    1.8266   -3.1746 H   0  0  0  0  0  0
    6.0519    0.2401   -2.4191 H   0  0  0  0  0  0
    3.4224   -0.0431   -4.1255 H   0  0  0  0  0  0
    3.9634    1.6149   -4.4173 H   0  0  0  0  0  0
    2.4035    1.3101   -3.6550 H   0  0  0  0  0  0
   -3.7247   -2.0442    1.3858 H   0  0  0  0  0  0
   -2.4678   -1.5487    2.5179 H   0  0  0  0  0  0
   -2.3707   -3.1246    1.7116 H   0  0  0  0  0  0
  1 12  1  0  0  0
  1 18  1  0  0  0
  2  9  2  0  0  0
  2 10  1  0  0  0
  3  9  1  0  0  0
  3 11  2  0  0  0
  4  9  1  0  0  0
  4 12  1  0  0  0
  4 13  1  0  0  0
  5 10  2  0  0  0
  5 11  1  0  0  0
  6 10  1  0  0  0
  6 14  1  0  0  0
  6 15  1  0  0  0
  7 11  1  0  0  0
  7 16  1  0  0  0
  7 17  1  0  0  0
  8 13  3  0  0  0
 12 19  1  0  0  0
 12 20  1  0  0  0
 14 21  1  0  0  0
 14 22  1  0  0  0
 14 23  1  0  0  0
 15 24  1  0  0  0
 15 25  1  0  0  0
 15 26  1  0  0  0
 16 27  1  0  0  0
 16 28  1  0  0  0
 16 29  1  0  0  0
 17 30  1  0  0  0
 17 31  1  0  0  0
 17 32  1  0  0  0
 18 33  1  0  0  0
 18 34  1  0  0  0
 18 35  1  0  0  0
M  END
> <chembl_id>
CHEMBL1863593

> <chembl_pref_name>
None

> <s_m_source_file>
sdf/inactives_sanitized.sdf

> <i_m_source_file_index>
21

> <i_lp_mmshare_version>
49012

> <i_m_ct_stereo_status>
1

> <i_f3d_flags>
0

> <s_epik_input>
W0NIM11PW0NIMl1OKEMjTiljMW5jKE4oW0NIM10pW0NIM10pbmMobjEpTihbQ0gzXSlbQ0gzXQ==

> <s_epik_cmdline>
J2VwaWtfcHl0aG9uJywgJy1waHQnLCAnMC41JywgJy1waCcsICc3LjUnLCAnLW50JywgJy1tYScsICcyMDAnLCAnLWltYWUnLCAnPGluZmlsZS5tYWU+JywgJy1vbWFlJywgJzxvdXRmaWxlLm1hZT4n

> <r_lp_tautomer_probability>
1

> <r_epik_Ionization_Penalty>
  0.0310

> <r_epik_Ionization_Penalty_Charging>
  0.0000

> <r_epik_Ionization_Penalty_Neutral>
  0.0310

> <r_epik_State_Penalty>
  0.0254

> <r_epik_Charging_Adjusted_Penalty>
0.0254145916443772

> <i_epik_Tot_Q>
0

> <i_epik_Tot_abs_Q>
0

> <s_epik_Chemistry_Notes>
This compound contains an acetal/aminal-like group ( X-CH(R)-Y where X, Y are N, S, or O) that may be acid/base labile, releasing an aldehyde.

> <s_lp_Force_Field>
OPLS3e

> <r_lp_Energy>
26.185065

> <b_lp_Chiralities_Consistent>
1

> <s_lp_Variant>
sdf/inactives_sanitized.sdf:21-1

$$$$
sdf/inactives_sanitized.sdf:22
                    3D
 Schrodinger Suite 2020-1.
 58 58  0  0  1  0            999 V2000
    2.6590   -0.4010   -0.9243 C   0  0  0  0  0  0
   -0.3380    1.1755   -0.0005 C   0  0  0  0  0  0
    2.6728    0.5758   -2.1768 C   0  0  0  0  0  0
    0.7776    1.3277   -4.9696 N   0  0  0  0  0  0
    0.4781    0.0580   -0.1155 N   0  0  0  0  0  0
    1.7315    0.5038   -5.3723 C   0  0  0  0  0  0
    1.8902    0.0938    0.3000 C   0  0  1  0  0  0
   -1.5641    0.8592   -0.4703 O   0  0  0  0  0  0
   -2.6130    1.8274   -0.5991 C   0  0  0  0  0  0
    2.9913   -0.0610   -3.3191 N   0  0  0  0  0  0
   -0.2452    0.0221   -6.9426 S   0  0  0  0  0  0
   -0.3141    1.1995   -5.6778 C   0  0  0  0  0  0
    1.3924   -0.3019   -6.4595 C   0  0  0  0  0  0
    3.2611   -1.4786   -0.9688 O   0  0  0  0  0  0
   -0.0145    2.2803    0.4417 O   0  0  0  0  0  0
    2.3966    1.7713   -2.0652 O   0  0  0  0  0  0
    3.0602    0.5668   -4.6388 C   0  0  0  0  0  0
   -3.9091    1.2115    0.0110 C   0  0  0  0  0  0
   -2.7173    2.2954   -2.0854 C   0  0  0  0  0  0
    2.1498   -0.7761    1.5591 C   0  0  0  0  0  0
   -3.0590    1.1554   -3.0676 C   0  0  0  0  0  0
   -1.4633    3.0612   -2.5537 C   0  0  0  0  0  0
   -5.1503    2.1128   -0.1578 C   0  0  0  0  0  0
   -3.7233    0.8591    1.5030 C   0  0  0  0  0  0
    1.4275   -0.2625    2.8217 C   0  0  0  0  0  0
    1.7295   -1.1091    4.0703 C   0  0  0  0  0  0
    1.0104   -0.5981    5.3262 C   0  0  0  0  0  0
    0.0786   -0.8214   -0.4087 H   0  0  0  0  0  0
    2.2319    1.1063    0.5297 H   0  0  0  0  0  0
   -2.3897    2.7095    0.0047 H   0  0  0  0  0  0
    3.2008   -1.0481   -3.2783 H   0  0  0  0  0  0
   -1.2047    1.7843   -5.5038 H   0  0  0  0  0  0
    1.9957   -1.0371   -6.9713 H   0  0  0  0  0  0
    3.8297    0.0445   -5.2080 H   0  0  0  0  0  0
    3.4269    1.5928   -4.5581 H   0  0  0  0  0  0
   -4.1193    0.2748   -0.5077 H   0  0  0  0  0  0
   -3.5271    3.0227   -2.1432 H   0  0  0  0  0  0
    1.8322   -1.8040    1.3718 H   0  0  0  0  0  0
    3.2222   -0.8112    1.7612 H   0  0  0  0  0  0
   -2.2805    0.3916   -3.0824 H   0  0  0  0  0  0
   -3.1687    1.5332   -4.0844 H   0  0  0  0  0  0
   -3.9988    0.6679   -2.8097 H   0  0  0  0  0  0
   -0.5888    2.4122   -2.6106 H   0  0  0  0  0  0
   -1.2236    3.8805   -1.8752 H   0  0  0  0  0  0
   -1.6114    3.4933   -3.5440 H   0  0  0  0  0  0
   -4.9846    3.1035    0.2670 H   0  0  0  0  0  0
   -6.0217    1.6829    0.3376 H   0  0  0  0  0  0
   -5.4220    2.2377   -1.2058 H   0  0  0  0  0  0
   -3.4875    1.7445    2.0950 H   0  0  0  0  0  0
   -2.9173    0.1399    1.6512 H   0  0  0  0  0  0
   -4.6261    0.4126    1.9212 H   0  0  0  0  0  0
    1.7183    0.7724    3.0086 H   0  0  0  0  0  0
    0.3498   -0.2544    2.6515 H   0  0  0  0  0  0
    1.4388   -2.1450    3.8894 H   0  0  0  0  0  0
    2.8047   -1.1210    4.2549 H   0  0  0  0  0  0
    1.2484   -1.2190    6.1904 H   0  0  0  0  0  0
   -0.0724   -0.6135    5.1963 H   0  0  0  0  0  0
    1.3050    0.4250    5.5625 H   0  0  0  0  0  0
  1  3  1  0  0  0
  1  7  1  0  0  0
  1 14  2  0  0  0
  2  5  1  0  0  0
  2  8  1  0  0  0
  2 15  2  0  0  0
  3 10  1  0  0  0
  3 16  2  0  0  0
  4  6  1  0  0  0
  4 12  2  0  0  0
  5  7  1  0  0  0
  5 28  1  0  0  0
  6 17  1  0  0  0
  6 13  2  0  0  0
  7 20  1  0  0  0
  7 29  1  0  0  0
  8  9  1  0  0  0
  9 18  1  0  0  0
  9 19  1  0  0  0
  9 30  1  0  0  0
 10 17  1  0  0  0
 10 31  1  0  0  0
 11 13  1  0  0  0
 11 12  1  0  0  0
 12 32  1  0  0  0
 13 33  1  0  0  0
 17 34  1  0  0  0
 17 35  1  0  0  0
 18 23  1  0  0  0
 18 24  1  0  0  0
 18 36  1  0  0  0
 19 21  1  0  0  0
 19 22  1  0  0  0
 19 37  1  0  0  0
 20 25  1  0  0  0
 20 38  1  0  0  0
 20 39  1  0  0  0
 21 40  1  0  0  0
 21 41  1  0  0  0
 21 42  1  0  0  0
 22 43  1  0  0  0
 22 44  1  0  0  0
 22 45  1  0  0  0
 23 46  1  0  0  0
 23 47  1  0  0  0
 23 48  1  0  0  0
 24 49  1  0  0  0
 24 50  1  0  0  0
 24 51  1  0  0  0
 25 26  1  0  0  0
 25 52  1  0  0  0
 25 53  1  0  0  0
 26 27  1  0  0  0
 26 54  1  0  0  0
 26 55  1  0  0  0
 27 56  1  0  0  0
 27 57  1  0  0  0
 27 58  1  0  0  0
M  END
> <chembl_id>
CHEMBL85977

> <chembl_pref_name>
None

> <i_m_ct_stereo_status>
1

> <s_m_source_file>
sdf/inactives_sanitized.sdf

> <i_m_source_file_index>
22

> <i_lp_mmshare_version>
49012

> <i_f3d_flags>
0

> <s_epik_input>
W0NIM11bQ0hdKFtDSDNdKVtDSF0oW0NIXShbQ0gzXSlbQ0gzXSlPQyg9TylbTkhdW0NAQEhdKFtDSDJdW0NIMl1bQ0gyXVtDSDNdKUMoPU8pQyg9TylbTkhdW0NIMl1jMW5bY0hdc1tjSF0x

> <s_epik_cmdline>
J2VwaWtfcHl0aG9uJywgJy1waHQnLCAnMC41JywgJy1waCcsICc3LjUnLCAnLW50JywgJy1tYScsICcyMDAnLCAnLWltYWUnLCAnPGluZmlsZS5tYWU+JywgJy1vbWFlJywgJzxvdXRmaWxlLm1hZT4n

> <r_lp_tautomer_probability>
1

> <r_epik_Ionization_Penalty>
  0.0000

> <r_epik_Ionization_Penalty_Charging>
  0.0000

> <r_epik_Ionization_Penalty_Neutral>
  0.0000

> <r_epik_State_Penalty>
 -0.0000

> <r_epik_Charging_Adjusted_Penalty>
0

> <i_epik_Tot_Q>
0

> <i_epik_Tot_abs_Q>
0

> <s_epik_Chemistry_Notes>
This compound has an ester and may undergo hydrolysis at high or low pH.

> <s_lp_Force_Field>
OPLS3e

> <r_lp_Energy>
17.537023

> <b_lp_Chiralities_Consistent>
1

> <s_lp_Variant>
sdf/inactives_sanitized.sdf:22-1

$$$$
sdf/inactives_sanitized.sdf:23
                    3D
 Schrodinger Suite 2020-1.
 72 76  0  0  1  0            999 V2000
    8.4825    5.1230   -3.5117 C   0  0  0  0  0  0
    6.9713    5.1307   -3.3979 C   0  0  0  0  0  0
    7.6407    5.5926   -4.6745 C   0  0  0  0  0  0
    4.7640    3.8616    0.2428 C   0  0  0  0  0  0
    5.1569    4.3477   -1.1722 C   0  0  0  0  0  0
    5.9384    3.2837   -1.9852 C   0  0  0  0  0  0
    6.2352    3.7712   -3.4171 C   0  0  0  0  0  0
    6.3160    6.2008   -2.4938 C   0  0  0  0  0  0
    6.0163    5.6312   -1.0924 C   0  0  0  0  0  0
    3.8242    2.7408    0.2410 N   0  0  0  0  0  0
   -0.3122   -0.4522   -0.8524 C   0  0  2  0  0  0
    1.0722   -0.4032   -0.3610 N   0  0  0  0  0  0
    1.9755    0.5592   -0.6356 C   0  0  0  0  0  0
    3.3668    0.3388   -0.0760 C   0  0  0  0  0  0
    1.7065    1.5604   -1.3016 O   0  0  0  0  0  0
    4.2363    1.3928    0.3081 C   0  0  0  0  0  0
    5.4962    1.1362    0.7666 N   0  0  0  0  0  0
    5.8761   -0.1612    0.8416 C   0  0  0  0  0  0
    5.1284   -1.2378    0.5067 N   0  0  0  0  0  0
    3.8809   -0.9655    0.0494 C   0  0  0  0  0  0
    7.2190   -0.4212    1.3307 C   0  0  0  0  0  0
    8.2888   -0.6279    1.7206 N   0  0  0  0  0  0
   -1.2660   -0.9445    0.2641 C   0  0  0  0  0  0
   -0.4296   -1.3344   -2.1221 C   0  0  0  0  0  0
   -1.7504    0.2314    1.1437 N   0  3  0  0  0  0
   -2.8517   -0.1689    2.1377 C   0  0  0  0  0  0
   -2.8629    0.9870    3.1318 C   0  0  0  0  0  0
   -1.4092    1.4455    3.2445 C   0  0  0  0  0  0
   -0.6652    0.8790    2.0284 C   0  0  0  0  0  0
    0.3856   -0.8314   -3.3090 C   0  0  0  0  0  0
    1.6127   -1.4261   -3.6181 C   0  0  0  0  0  0
    2.3680   -0.9470   -4.6848 C   0  0  0  0  0  0
    1.8930    0.1224   -5.4411 C   0  0  0  0  0  0
    0.6694    0.7172   -5.1407 C   0  0  0  0  0  0
   -0.0863    0.2394   -4.0732 C   0  0  0  0  0  0
    9.0552    5.8550   -2.9416 H   0  0  0  0  0  0
    8.9980    4.1647   -3.5829 H   0  0  0  0  0  0
    7.5644    4.9638   -5.5622 H   0  0  0  0  0  0
    7.6218    6.6548   -4.9206 H   0  0  0  0  0  0
    5.6628    3.6179    0.8103 H   0  0  0  0  0  0
    4.3076    4.6778    0.8037 H   0  0  0  0  0  0
    4.2440    4.5865   -1.7221 H   0  0  0  0  0  0
    6.8606    3.0163   -1.4663 H   0  0  0  0  0  0
    5.3718    2.3540   -2.0369 H   0  0  0  0  0  0
    5.2961    3.8810   -3.9614 H   0  0  0  0  0  0
    6.8104    3.0170   -3.9564 H   0  0  0  0  0  0
    6.9461    7.0875   -2.4100 H   0  0  0  0  0  0
    5.3843    6.5343   -2.9532 H   0  0  0  0  0  0
    6.9399    5.4346   -0.5449 H   0  0  0  0  0  0
    5.4976    6.3850   -0.4984 H   0  0  0  0  0  0
    2.9147    2.9170   -0.1623 H   0  0  0  0  0  0
   -0.6289    0.5562   -1.1323 H   0  0  0  0  0  0
    1.3579   -1.1662    0.2352 H   0  0  0  0  0  0
    3.3013   -1.8318   -0.2364 H   0  0  0  0  0  0
   -2.1903   -1.3555   -0.1457 H   0  0  0  0  0  0
   -0.8203   -1.6815    0.9355 H   0  0  0  0  0  0
   -0.1401   -2.3620   -1.8939 H   0  0  0  0  0  0
   -1.4723   -1.3980   -2.4379 H   0  0  0  0  0  0
   -3.7785   -0.3221    1.5832 H   0  0  0  0  0  0
   -2.5396   -1.1151    2.5844 H   0  0  0  0  0  0
   -3.4904    1.7954    2.7536 H   0  0  0  0  0  0
   -3.2682    0.6839    4.0981 H   0  0  0  0  0  0
   -1.3416    2.5337    3.2774 H   0  0  0  0  0  0
   -0.9579    1.0690    4.1637 H   0  0  0  0  0  0
   -0.1442    1.6199    1.4205 H   0  0  0  0  0  0
    0.0224    0.0834    2.3211 H   0  0  0  0  0  0
    1.9872   -2.2498   -3.0276 H   0  0  0  0  0  0
    3.3191   -1.3999   -4.9234 H   0  0  0  0  0  0
    2.4798    0.4948   -6.2678 H   0  0  0  0  0  0
    0.3105    1.5472   -5.7313 H   0  0  0  0  0  0
   -1.0311    0.7070   -3.8365 H   0  0  0  0  0  0
   -2.1339    0.9378    0.5311 H   0  0  0  0  0  0
  1  2  1  0  0  0
  1  3  1  0  0  0
  1 36  1  0  0  0
  1 37  1  0  0  0
  2  7  1  0  0  0
  2  8  1  0  0  0
  2  3  1  0  0  0
  3 38  1  0  0  0
  3 39  1  0  0  0
  4  5  1  0  0  0
  4 10  1  0  0  0
  4 40  1  0  0  0
  4 41  1  0  0  0
  5  6  1  0  0  0
  5  9  1  0  0  0
  5 42  1  0  0  0
  6  7  1  0  0  0
  6 43  1  0  0  0
  6 44  1  0  0  0
  7 45  1  0  0  0
  7 46  1  0  0  0
  8  9  1  0  0  0
  8 47  1  0  0  0
  8 48  1  0  0  0
  9 49  1  0  0  0
  9 50  1  0  0  0
 10 16  1  0  0  0
 10 51  1  0  0  0
 11 23  1  0  0  0
 11 24  1  0  0  0
 11 12  1  0  0  0
 11 52  1  0  0  0
 12 13  1  0  0  0
 12 53  1  0  0  0
 13 14  1  0  0  0
 13 15  2  0  0  0
 14 20  1  0  0  0
 14 16  2  0  0  0
 16 17  1  0  0  0
 17 18  2  0  0  0
 18 19  1  0  0  0
 18 21  1  0  0  0
 19 20  2  0  0  0
 20 54  1  0  0  0
 21 22  3  0  0  0
 23 25  1  0  0  0
 23 55  1  0  0  0
 23 56  1  0  0  0
 24 30  1  0  0  0
 24 57  1  0  0  0
 24 58  1  0  0  0
 25 26  1  0  0  0
 25 29  1  0  0  0
 25 72  1  0  0  0
 26 27  1  0  0  0
 26 59  1  0  0  0
 26 60  1  0  0  0
 27 28  1  0  0  0
 27 61  1  0  0  0
 27 62  1  0  0  0
 28 29  1  0  0  0
 28 63  1  0  0  0
 28 64  1  0  0  0
 29 65  1  0  0  0
 29 66  1  0  0  0
 30 31  2  0  0  0
 30 35  1  0  0  0
 31 32  1  0  0  0
 31 67  1  0  0  0
 32 33  2  0  0  0
 32 68  1  0  0  0
 33 34  1  0  0  0
 33 69  1  0  0  0
 34 35  2  0  0  0
 34 70  1  0  0  0
 35 71  1  0  0  0
M  CHG  1  25   1
M  END
> <chembl_id>
CHEMBL509262

> <chembl_pref_name>
None

> <i_m_ct_stereo_status>
1

> <s_m_source_file>
sdf/inactives_sanitized.sdf

> <i_m_source_file_index>
23

> <i_lp_mmshare_version>
49012

> <i_f3d_flags>
0

> <s_epik_input>
W0NIMl0xW0NIMl1DMTJbQ0gyXVtDSDJdW0NIXShbQ0gyXVtDSDJdMilbQ0gyXVtOSF1jKG5jKEMjTiluW2NIXTMpYzNDKD1PKVtOSF1bQ0BIXShbQ0gyXU40W0NIMl1bQ0gyXVtDSDJdW0NIMl00KVtDSDJdYzVbY0hdW2NIXVtjSF1bY0hdW2NIXTU=

> <s_epik_cmdline>
J2VwaWtfcHl0aG9uJywgJy1waHQnLCAnMC41JywgJy1waCcsICc3LjUnLCAnLW50JywgJy1tYScsICcyMDAnLCAnLWltYWUnLCAnPGluZmlsZS5tYWU+JywgJy1vbWFlJywgJzxvdXRmaWxlLm1hZT4n

> <r_epik_Ionization_Penalty>
  0.0212

> <r_epik_Ionization_Penalty_Charging>
  0.0211

> <r_epik_Ionization_Penalty_Neutral>
  0.0001

> <r_epik_State_Penalty>
  0.0169

> <r_epik_Charging_Adjusted_Penalty>
0.0380253078271092

> <i_epik_Tot_Q>
1

> <i_epik_Tot_abs_Q>
1

> <s_lp_Force_Field>
OPLS3e

> <r_lp_Energy>
39.711357

> <b_lp_Chiralities_Consistent>
1

> <s_lp_Variant>
sdf/inactives_sanitized.sdf:23-1

$$$$
sdf/inactives_sanitized.sdf:24
                    3D
 Schrodinger Suite 2020-1.
 40 41  0  0  1  0            999 V2000
   -5.2565    0.3487    0.0082 C   0  0  0  0  0  0
   -4.5884    0.4854    1.2257 C   0  0  0  0  0  0
   -3.2416    0.8544    1.2554 C   0  0  0  0  0  0
   -2.5612    1.0868    0.0492 C   0  0  0  0  0  0
   -3.2346    0.9533   -1.1671 C   0  0  0  0  0  0
   -4.5792    0.5840   -1.1883 C   0  0  0  0  0  0
   -0.8558    1.5516    0.0206 S   0  0  0  0  0  0
    0.0460   -0.0072    0.2705 C   0  0  0  0  0  0
    1.5915    0.0560    0.1507 C   0  0  1  0  0  0
    2.1297    0.5926   -1.2173 C   0  0  1  0  0  0
    3.6846    0.6162   -1.2734 C   0  0  0  0  0  0
    4.2609    1.4230   -0.0919 C   0  0  0  0  0  0
    3.7450    0.9093    1.2662 C   0  0  0  0  0  0
    2.2064    0.8807    1.3093 C   0  0  0  0  0  0
    1.5524   -0.2031   -2.4147 C   0  0  0  0  0  0
    0.5958    0.2520   -3.0433 O   0  0  0  0  0  0
    2.1191   -1.3850   -2.7196 N   0  0  0  0  0  0
    1.7130   -2.2375   -3.8337 C   0  0  0  0  0  0
    1.9686   -1.6225   -5.1484 C   0  0  0  0  0  0
    2.1698   -1.1397   -6.1807 N   0  0  0  0  0  0
   -2.4619    1.0142    2.7929 Cl  0  0  0  0  0  0
   -6.9196   -0.1113   -0.0174 Cl  0  0  0  0  0  0
   -5.1171    0.3048    2.1504 H   0  0  0  0  0  0
   -2.7163    1.1318   -2.0984 H   0  0  0  0  0  0
   -5.0924    0.4808   -2.1334 H   0  0  0  0  0  0
   -0.2247   -0.3907    1.2548 H   0  0  0  0  0  0
   -0.3521   -0.7390   -0.4331 H   0  0  0  0  0  0
    1.9609   -0.9664    0.2570 H   0  0  0  0  0  0
    1.7774    1.6142   -1.3755 H   0  0  0  0  0  0
    4.1016   -0.3871   -1.1661 H   0  0  0  0  0  0
    4.0424    1.0976   -2.1855 H   0  0  0  0  0  0
    5.3509    1.3822   -0.1112 H   0  0  0  0  0  0
    3.9961    2.4756   -0.2059 H   0  0  0  0  0  0
    4.1353   -0.0925    1.4520 H   0  0  0  0  0  0
    4.1265    1.5397    2.0703 H   0  0  0  0  0  0
    1.8180    1.9003    1.2873 H   0  0  0  0  0  0
    1.8738    0.4777    2.2670 H   0  0  0  0  0  0
    2.9299   -1.6829   -2.1970 H   0  0  0  0  0  0
    2.2716   -3.1722   -3.7858 H   0  0  0  0  0  0
    0.6544   -2.4920   -3.7616 H   0  0  0  0  0  0
  1  6  2  0  0  0
  1  2  1  0  0  0
  1 22  1  0  0  0
  2  3  2  0  0  0
  2 23  1  0  0  0
  3  4  1  0  0  0
  3 21  1  0  0  0
  4  7  1  0  0  0
  4  5  2  0  0  0
  5  6  1  0  0  0
  5 24  1  0  0  0
  6 25  1  0  0  0
  7  8  1  0  0  0
  8  9  1  0  0  0
  8 26  1  0  0  0
  8 27  1  0  0  0
  9 14  1  0  0  0
  9 10  1  0  0  0
  9 28  1  0  0  0
 10 11  1  0  0  0
 10 15  1  0  0  0
 10 29  1  0  0  0
 11 12  1  0  0  0
 11 30  1  0  0  0
 11 31  1  0  0  0
 12 13  1  0  0  0
 12 32  1  0  0  0
 12 33  1  0  0  0
 13 14  1  0  0  0
 13 34  1  0  0  0
 13 35  1  0  0  0
 14 36  1  0  0  0
 14 37  1  0  0  0
 15 16  2  0  0  0
 15 17  1  0  0  0
 17 18  1  0  0  0
 17 38  1  0  0  0
 18 19  1  0  0  0
 18 39  1  0  0  0
 18 40  1  0  0  0
 19 20  3  0  0  0
M  END
> <chembl_id>
CHEMBL201478

> <chembl_pref_name>
None

> <i_m_ct_stereo_status>
1

> <s_m_source_file>
sdf/inactives_sanitized.sdf

> <i_m_source_file_index>
24

> <i_lp_mmshare_version>
49012

> <i_f3d_flags>
0

> <s_epik_input>
Q2xjMVtjSF1jKENsKWMoW2NIXVtjSF0xKVNbQ0gyXVtDQEhdMltDQEBIXShbQ0gyXVtDSDJdW0NIMl1bQ0gyXTIpQyg9TylbTkhdW0NIMl1DI04=

> <s_epik_cmdline>
J2VwaWtfcHl0aG9uJywgJy1waHQnLCAnMC41JywgJy1waCcsICc3LjUnLCAnLW50JywgJy1tYScsICcyMDAnLCAnLWltYWUnLCAnPGluZmlsZS5tYWU+JywgJy1vbWFlJywgJzxvdXRmaWxlLm1hZT4n

> <r_lp_tautomer_probability>
1

> <r_epik_Ionization_Penalty>
  0.0000

> <r_epik_Ionization_Penalty_Charging>
  0.0000

> <r_epik_Ionization_Penalty_Neutral>
  0.0000

> <r_epik_State_Penalty>
 -0.0000

> <r_epik_Charging_Adjusted_Penalty>
0

> <i_epik_Tot_Q>
0

> <i_epik_Tot_abs_Q>
0

> <s_lp_Force_Field>
OPLS3e

> <r_lp_Energy>
23.161032

> <b_lp_Chiralities_Consistent>
1

> <s_lp_Variant>
sdf/inactives_sanitized.sdf:24-1

$$$$
sdf/inactives_sanitized.sdf:25
                    3D
 Schrodinger Suite 2020-1.
 62 64  0  0  1  0            999 V2000
   -2.3958    0.1719   -0.9526 N   0  0  2  0  0  0
   -0.6730    1.0765    0.6530 C   0  0  0  0  0  0
    0.0849   -0.0185    0.4445 N   0  0  0  0  0  0
   -2.1766    1.0034    0.2610 C   0  0  2  0  0  0
   -1.6773    0.5981   -2.1697 C   0  0  0  0  0  0
   -0.9010   -0.5420   -2.8712 C   0  0  0  0  0  0
    2.1207   -1.0498   -0.3745 C   0  0  0  0  0  0
    1.5208   -0.1452    0.6933 C   0  0  2  0  0  0
    2.9214   -0.6297   -1.3741 C   0  0  0  0  0  0
   -0.2251    2.1160    1.1399 O   0  0  0  0  0  0
   -0.9954   -1.7000   -2.4530 O   0  0  0  0  0  0
   -0.0255   -0.1732   -4.0332 C   0  0  0  0  0  0
    1.8394   -0.5795    2.1533 C   0  0  0  0  0  0
    3.5090   -1.4543   -2.4513 C   0  0  0  0  0  0
   -3.8007   -0.1420   -1.2522 C   0  0  0  0  0  0
   -2.9695    0.5000    1.4996 C   0  0  0  0  0  0
    0.0595    1.1460   -4.5060 C   0  0  0  0  0  0
    0.7364   -1.1701   -4.6614 C   0  0  0  0  0  0
    3.3530   -0.5808    2.4461 C   0  0  0  0  0  0
    1.1931   -1.9215    2.5618 C   0  0  0  0  0  0
    4.3797   -0.8400   -3.3582 C   0  0  0  0  0  0
    3.2179   -2.8179   -2.5985 C   0  0  0  0  0  0
   -4.5564   -0.7032   -0.0337 C   0  0  0  0  0  0
   -4.4451    0.2231    1.1824 C   0  0  0  0  0  0
    1.5695   -0.8559   -5.7313 C   0  0  0  0  0  0
    0.8938    1.4589   -5.5762 C   0  0  0  0  0  0
    3.7868   -3.5503   -3.6373 C   0  0  0  0  0  0
    4.9499   -1.5717   -4.3966 C   0  0  0  0  0  0
    1.6465    0.4577   -6.1829 C   0  0  0  0  0  0
    4.6501   -2.9243   -4.5320 C   0  0  0  0  0  0
   -0.3715   -0.8412    0.0768 H   0  0  0  0  0  0
   -2.4692    2.0332    0.0437 H   0  0  0  0  0  0
   -2.3715    1.0418   -2.8851 H   0  0  0  0  0  0
   -0.9624    1.3848   -1.9293 H   0  0  0  0  0  0
    1.8502   -2.0917   -0.2979 H   0  0  0  0  0  0
    1.9724    0.8386    0.5385 H   0  0  0  0  0  0
    3.1605    0.4240   -1.4109 H   0  0  0  0  0  0
    1.4069    0.1805    2.8069 H   0  0  0  0  0  0
   -4.2953    0.7549   -1.6291 H   0  0  0  0  0  0
   -3.8333   -0.8737   -2.0609 H   0  0  0  0  0  0
   -2.5215   -0.4168    1.8903 H   0  0  0  0  0  0
   -2.9064    1.2285    2.3099 H   0  0  0  0  0  0
   -0.5096    1.9474   -4.0589 H   0  0  0  0  0  0
    0.6998   -2.1964   -4.3233 H   0  0  0  0  0  0
    3.8758   -1.3390    1.8615 H   0  0  0  0  0  0
    3.5512   -0.7838    3.4992 H   0  0  0  0  0  0
    3.8016    0.3853    2.2121 H   0  0  0  0  0  0
    1.5843   -2.7536    1.9758 H   0  0  0  0  0  0
    0.1108   -1.9028    2.4306 H   0  0  0  0  0  0
    1.3833   -2.1439    3.6125 H   0  0  0  0  0  0
    4.6160    0.2105   -3.2658 H   0  0  0  0  0  0
    2.5469   -3.3243   -1.9216 H   0  0  0  0  0  0
   -5.6077   -0.8298   -0.2942 H   0  0  0  0  0  0
   -4.1965   -1.7072    0.1970 H   0  0  0  0  0  0
   -4.9600    1.1632    0.9780 H   0  0  0  0  0  0
   -4.9417   -0.2221    2.0455 H   0  0  0  0  0  0
    2.1587   -1.6283   -6.2034 H   0  0  0  0  0  0
    0.9575    2.4760   -5.9338 H   0  0  0  0  0  0
    3.5579   -4.5998   -3.7493 H   0  0  0  0  0  0
    5.6191   -1.0917   -5.0953 H   0  0  0  0  0  0
    2.2960    0.7023   -7.0106 H   0  0  0  0  0  0
    5.0903   -3.4923   -5.3382 H   0  0  0  0  0  0
  1  4  1  0  0  0
  1  5  1  0  0  0
  1 15  1  0  0  0
  2  4  1  0  0  0
  2  3  1  0  0  0
  2 10  2  0  0  0
  3  8  1  0  0  0
  3 31  1  0  0  0
  4 16  1  0  0  0
  4 32  1  0  0  0
  5  6  1  0  0  0
  5 33  1  0  0  0
  5 34  1  0  0  0
  6 11  2  0  0  0
  6 12  1  0  0  0
  7  8  1  0  0  0
  7  9  2  0  0  0
  7 35  1  0  0  0
  8 13  1  0  0  0
  8 36  1  0  0  0
  9 14  1  0  0  0
  9 37  1  0  0  0
 12 17  2  0  0  0
 12 18  1  0  0  0
 13 19  1  0  0  0
 13 20  1  0  0  0
 13 38  1  0  0  0
 14 21  2  0  0  0
 14 22  1  0  0  0
 15 23  1  0  0  0
 15 39  1  0  0  0
 15 40  1  0  0  0
 16 24  1  0  0  0
 16 41  1  0  0  0
 16 42  1  0  0  0
 17 26  1  0  0  0
 17 43  1  0  0  0
 18 25  2  0  0  0
 18 44  1  0  0  0
 19 45  1  0  0  0
 19 46  1  0  0  0
 19 47  1  0  0  0
 20 48  1  0  0  0
 20 49  1  0  0  0
 20 50  1  0  0  0
 21 28  1  0  0  0
 21 51  1  0  0  0
 22 27  2  0  0  0
 22 52  1  0  0  0
 23 24  1  0  0  0
 23 53  1  0  0  0
 23 54  1  0  0  0
 24 55  1  0  0  0
 24 56  1  0  0  0
 25 29  1  0  0  0
 25 57  1  0  0  0
 26 29  2  0  0  0
 26 58  1  0  0  0
 27 30  1  0  0  0
 27 59  1  0  0  0
 28 30  2  0  0  0
 28 60  1  0  0  0
 29 61  1  0  0  0
 30 62  1  0  0  0
M  END
> <chembl_id>
CHEMBL103402

> <chembl_pref_name>
None

> <i_m_ct_stereo_status>
1

> <s_m_source_file>
sdf/inactives_sanitized.sdf

> <i_m_source_file_index>
25

> <i_lp_mmshare_version>
49012

> <i_f3d_flags>
0

> <s_epik_input>
W2NIXTFbY0hdW2NIXVtjSF1bY0hdYzFDKD1PKVtDSDJdTjJbQ0BASF0oW0NIMl1bQ0gyXVtDSDJdW0NIMl0yKUMoPU8pW05IXVtDQEBIXShbQ0hdKFtDSDNdKVtDSDNdKS9bQ0hdPVtDSF0vYzNbY0hdW2NIXVtjSF1bY0hdW2NIXTM=

> <s_epik_cmdline>
J2VwaWtfcHl0aG9uJywgJy1waHQnLCAnMC41JywgJy1waCcsICc3LjUnLCAnLW50JywgJy1tYScsICcyMDAnLCAnLWltYWUnLCAnPGluZmlsZS5tYWU+JywgJy1vbWFlJywgJzxvdXRmaWxlLm1hZT4n

> <r_lp_tautomer_probability>
0.99990000499975

> <r_epik_Ionization_Penalty>
  0.0203

> <r_epik_Ionization_Penalty_Charging>
  0.0000

> <r_epik_Ionization_Penalty_Neutral>
  0.0203

> <r_epik_State_Penalty>
  0.0163

> <r_epik_Charging_Adjusted_Penalty>
0.0162978054039567

> <i_epik_Tot_Q>
0

> <i_epik_Tot_abs_Q>
0

> <s_lp_Force_Field>
OPLS3e

> <r_lp_Energy>
35.732308

> <b_lp_Chiralities_Consistent>
1

> <s_lp_Variant>
sdf/inactives_sanitized.sdf:25-1

$$$$
sdf/inactives_sanitized.sdf:26
                    3D
 Schrodinger Suite 2020-1.
 33 34  0  0  1  0            999 V2000
    3.7196   -0.8815   -2.7457 C   0  0  0  0  0  0
   -0.7709    1.0092    0.0023 C   0  0  0  0  0  0
    3.1235   -0.7557   -1.5462 N   0  0  1  0  0  0
    4.2722   -1.0157   -3.7538 N   0  0  0  0  0  0
    0.1073   -0.0723    0.0244 N   0  0  0  0  0  0
   -1.9969    0.8963   -0.0217 O   0  0  0  0  0  0
    1.5725    0.0262    0.0585 C   0  0  2  0  0  0
   -0.1128    2.1945    0.0046 O   0  0  0  0  0  0
    2.1669    0.3261   -1.3340 C   0  0  0  0  0  0
    2.1841   -1.3172    0.4557 C   0  0  0  0  0  0
    2.6113   -1.9376   -0.8704 C   0  0  0  0  0  0
   -0.8233    3.4251   -0.0201 C   0  0  0  0  0  0
    0.1667    4.5743   -0.0192 C   0  0  0  0  0  0
    0.6378    5.0861   -1.2303 C   0  0  0  0  0  0
    0.6074    5.1124    1.1922 C   0  0  0  0  0  0
    1.5200    6.1643    1.1918 C   0  0  0  0  0  0
    1.5500    6.1383   -1.2299 C   0  0  0  0  0  0
    1.9868    6.6724   -0.0191 C   0  0  0  0  0  0
   -0.2929   -0.9991    0.0125 H   0  0  0  0  0  0
    1.8702    0.7647    0.8067 H   0  0  0  0  0  0
    1.4095    0.3196   -2.1204 H   0  0  0  0  0  0
    2.6645    1.2966   -1.3541 H   0  0  0  0  0  0
    1.5439   -1.9606    1.0615 H   0  0  0  0  0  0
    3.0798   -1.1485    1.0581 H   0  0  0  0  0  0
    3.3924   -2.6901   -0.7557 H   0  0  0  0  0  0
    1.7677   -2.3231   -1.4460 H   0  0  0  0  0  0
   -1.4556    3.4866   -0.9076 H   0  0  0  0  0  0
   -1.4828    3.5068    0.8457 H   0  0  0  0  0  0
    0.3003    4.6697   -2.1685 H   0  0  0  0  0  0
    0.2464    4.7169    2.1307 H   0  0  0  0  0  0
    1.8646    6.5840    2.1254 H   0  0  0  0  0  0
    1.9173    6.5378   -2.1637 H   0  0  0  0  0  0
    2.6948    7.4884   -0.0189 H   0  0  0  0  0  0
  1  3  1  0  0  0
  1  4  3  0  0  0
  2  5  1  0  0  0
  2  6  2  0  0  0
  2  8  1  0  0  0
  3  9  1  0  0  0
  3 11  1  0  0  0
  5  7  1  0  0  0
  5 19  1  0  0  0
  7  9  1  0  0  0
  7 10  1  0  0  0
  7 20  1  0  0  0
  8 12  1  0  0  0
  9 21  1  0  0  0
  9 22  1  0  0  0
 10 11  1  0  0  0
 10 23  1  0  0  0
 10 24  1  0  0  0
 11 25  1  0  0  0
 11 26  1  0  0  0
 12 13  1  0  0  0
 12 27  1  0  0  0
 12 28  1  0  0  0
 13 14  2  0  0  0
 13 15  1  0  0  0
 14 17  1  0  0  0
 14 29  1  0  0  0
 15 16  2  0  0  0
 15 30  1  0  0  0
 16 18  1  0  0  0
 16 31  1  0  0  0
 17 18  2  0  0  0
 17 32  1  0  0  0
 18 33  1  0  0  0
M  END
> <chembl_id>
CHEMBL273229

> <chembl_pref_name>
None

> <s_m_source_file>
sdf/inactives_sanitized.sdf

> <i_m_source_file_index>
26

> <i_lp_mmshare_version>
49012

> <i_m_ct_stereo_status>
1

> <i_f3d_flags>
0

> <s_epik_input>
TiNDTjFbQ0gyXVtDQEhdKFtDSDJdW0NIMl0xKVtOSF1DKD1PKU9bQ0gyXWMyW2NIXVtjSF1bY0hdW2NIXVtjSF0y

> <s_epik_cmdline>
J2VwaWtfcHl0aG9uJywgJy1waHQnLCAnMC41JywgJy1waCcsICc3LjUnLCAnLW50JywgJy1tYScsICcyMDAnLCAnLWltYWUnLCAnPGluZmlsZS5tYWU+JywgJy1vbWFlJywgJzxvdXRmaWxlLm1hZT4n

> <r_lp_tautomer_probability>
1

> <r_epik_Ionization_Penalty>
  0.0000

> <r_epik_Ionization_Penalty_Charging>
  0.0000

> <r_epik_Ionization_Penalty_Neutral>
  0.0000

> <r_epik_State_Penalty>
 -0.0000

> <r_epik_Charging_Adjusted_Penalty>
0

> <i_epik_Tot_Q>
0

> <i_epik_Tot_abs_Q>
0

> <s_epik_Chemistry_Notes>
This compound has an ester and may undergo hydrolysis at high or low pH.

> <s_lp_Force_Field>
OPLS3e

> <r_lp_Energy>
23.101824

> <b_lp_Chiralities_Consistent>
1

> <s_lp_Variant>
sdf/inactives_sanitized.sdf:26-1

$$$$
sdf/inactives_sanitized.sdf:27
                    3D
 Schrodinger Suite 2020-1.
 48 50  0  0  1  0            999 V2000
   -0.7453    2.0819   -1.1098 C   0  0  0  0  0  0
   -1.1748    3.4150   -1.1757 C   0  0  0  0  0  0
   -1.4021    4.0930    0.0313 C   0  0  0  0  0  0
   -1.1911    3.4660    1.2592 C   0  0  0  0  0  0
   -0.7362    2.1500    1.3022 C   0  0  0  0  0  0
   -0.5030    1.4525    0.1156 C   0  0  0  0  0  0
    0.0505    0.0308    0.1512 C   0  0  0  0  0  0
    1.6016   -0.0198    0.0423 C   0  0  2  0  0  0
    2.1085    0.6077   -1.1843 N   0  0  0  0  0  0
    2.1059   -1.4734    0.1079 C   0  0  0  0  0  0
    1.8819   -2.2425   -0.8289 O   0  0  0  0  0  0
    2.7435   -1.8368    1.2332 N   0  0  0  0  0  0
    3.3188   -3.1600    1.4533 C   0  0  0  0  0  0
    4.4397   -3.4570    0.5434 C   0  0  0  0  0  0
    5.3199   -3.6899   -0.1707 N   0  0  0  0  0  0
    2.6048    1.8560   -1.2878 C   0  0  0  0  0  0
    2.7128    2.6238   -0.3290 O   0  0  0  0  0  0
    2.9590    2.3109   -2.6837 C   0  0  0  0  0  0
   -1.3557    4.0954   -2.4929 C   0  0  0  0  0  0
    2.8673    3.6710   -3.0111 C   0  0  0  0  0  0
    3.1750    4.1091   -4.2961 C   0  0  0  0  0  0
    3.5814    3.1907   -5.2598 C   0  0  0  0  0  0
    3.6831    1.8373   -4.9496 C   0  0  0  0  0  0
    3.3733    1.3971   -3.6654 C   0  0  0  0  0  0
   -1.7384    3.3938   -3.6449 C   0  0  0  0  0  0
   -1.8687    4.0900   -4.8456 C   0  0  0  0  0  0
   -1.6364    5.4243   -4.9363 N   0  0  0  0  0  0
   -1.2689    6.1121   -3.8427 N   0  0  0  0  0  0
   -1.1324    5.4706   -2.6520 C   0  0  0  0  0  0
   -0.5437    1.5358   -2.0199 H   0  0  0  0  0  0
   -1.7460    5.1169    0.0281 H   0  0  0  0  0  0
   -1.3687    4.0057    2.1776 H   0  0  0  0  0  0
   -0.5535    1.6796    2.2573 H   0  0  0  0  0  0
   -0.2927   -0.4567    1.0661 H   0  0  0  0  0  0
   -0.4197   -0.5399   -0.6524 H   0  0  0  0  0  0
    2.0017    0.5168    0.9062 H   0  0  0  0  0  0
    2.0566    0.0349   -2.0141 H   0  0  0  0  0  0
    2.9060   -1.1449    1.9507 H   0  0  0  0  0  0
    3.6923   -3.2175    2.4757 H   0  0  0  0  0  0
    2.5600   -3.9367    1.3453 H   0  0  0  0  0  0
    2.5467    4.3972   -2.2772 H   0  0  0  0  0  0
    3.0972    5.1574   -4.5441 H   0  0  0  0  0  0
    3.8206    3.5311   -6.2565 H   0  0  0  0  0  0
    4.0013    1.1314   -5.7024 H   0  0  0  0  0  0
    3.4631    0.3428   -3.4450 H   0  0  0  0  0  0
   -1.9386    2.3328   -3.6179 H   0  0  0  0  0  0
   -2.1634    3.5841   -5.7531 H   0  0  0  0  0  0
   -0.8185    6.0893   -1.8244 H   0  0  0  0  0  0
  1  6  2  0  0  0
  1  2  1  0  0  0
  1 30  1  0  0  0
  2 19  1  0  0  0
  2  3  2  0  0  0
  3  4  1  0  0  0
  3 31  1  0  0  0
  4  5  2  0  0  0
  4 32  1  0  0  0
  5  6  1  0  0  0
  5 33  1  0  0  0
  6  7  1  0  0  0
  7  8  1  0  0  0
  7 34  1  0  0  0
  7 35  1  0  0  0
  8  9  1  0  0  0
  8 10  1  0  0  0
  8 36  1  0  0  0
  9 16  1  0  0  0
  9 37  1  0  0  0
 10 11  2  0  0  0
 10 12  1  0  0  0
 12 13  1  0  0  0
 12 38  1  0  0  0
 13 14  1  0  0  0
 13 39  1  0  0  0
 13 40  1  0  0  0
 14 15  3  0  0  0
 16 17  2  0  0  0
 16 18  1  0  0  0
 18 20  2  0  0  0
 18 24  1  0  0  0
 19 25  2  0  0  0
 19 29  1  0  0  0
 20 21  1  0  0  0
 20 41  1  0  0  0
 21 22  2  0  0  0
 21 42  1  0  0  0
 22 23  1  0  0  0
 22 43  1  0  0  0
 23 24  2  0  0  0
 23 44  1  0  0  0
 24 45  1  0  0  0
 25 26  1  0  0  0
 25 46  1  0  0  0
 26 27  2  0  0  0
 26 47  1  0  0  0
 27 28  1  0  0  0
 28 29  2  0  0  0
 29 48  1  0  0  0
M  END
> <chembl_id>
CHEMBL563517

> <chembl_pref_name>
None

> <i_m_ct_stereo_status>
1

> <s_m_source_file>
sdf/inactives_sanitized.sdf

> <i_m_source_file_index>
27

> <i_lp_mmshare_version>
49012

> <i_f3d_flags>
0

> <s_epik_input>
W2NIXTFubltjSF1bY0hdYzEtYzJbY0hdYyhbY0hdW2NIXVtjSF0yKVtDSDJdW0NAQEhdKEMoPU8pW05IXVtDSDJdQyNOKVtOSF1DKD1PKWMzW2NIXVtjSF1bY0hdW2NIXVtjSF0z

> <s_epik_cmdline>
J2VwaWtfcHl0aG9uJywgJy1waHQnLCAnMC41JywgJy1waCcsICc3LjUnLCAnLW50JywgJy1tYScsICcyMDAnLCAnLWltYWUnLCAnPGluZmlsZS5tYWU+JywgJy1vbWFlJywgJzxvdXRmaWxlLm1hZT4n

> <r_lp_tautomer_probability>
1

> <r_epik_Ionization_Penalty>
  0.0000

> <r_epik_Ionization_Penalty_Charging>
  0.0000

> <r_epik_Ionization_Penalty_Neutral>
  0.0000

> <r_epik_State_Penalty>
 -0.0000

> <r_epik_Charging_Adjusted_Penalty>
0

> <i_epik_Tot_Q>
0

> <i_epik_Tot_abs_Q>
0

> <s_lp_Force_Field>
OPLS3e

> <r_lp_Energy>
38.891305

> <b_lp_Chiralities_Consistent>
1

> <s_lp_Variant>
sdf/inactives_sanitized.sdf:27-1

$$$$
sdf/inactives_sanitized.sdf:28
                    3D
 Schrodinger Suite 2020-1.
 30 31  0  0  1  0            999 V2000
   -0.1204    0.0429   -0.1242 S   0  0  0  0  0  0
    1.6287    0.0021   -0.3162 N   0  0  1  0  0  0
    5.6093   -0.0934   -2.8496 C   0  0  0  0  0  0
    4.4517    0.4447   -2.4254 N   0  0  1  0  0  0
    6.6162   -0.5107   -3.2390 N   0  0  0  0  0  0
   -0.7286   -0.4586   -1.3624 O   0  0  0  0  0  0
   -0.4342   -0.5689    1.1715 O   0  0  0  0  0  0
    2.2635    0.5129   -1.5476 C   0  0  2  0  0  0
   -0.5181    1.7818    0.0233 C   0  0  0  0  0  0
    3.3357   -0.4386   -2.1083 C   0  0  0  0  0  0
    2.9984    1.8407   -1.3654 C   0  0  0  0  0  0
    4.4756    1.4657   -1.3911 C   0  0  0  0  0  0
   -1.3843    2.3919   -0.8876 C   0  0  0  0  0  0
    0.0544    2.5224    1.0597 C   0  0  0  0  0  0
   -0.2365    3.8782    1.1835 C   0  0  0  0  0  0
   -1.6745    3.7479   -0.7614 C   0  0  0  0  0  0
   -1.0992    4.4847    0.2724 C   0  0  0  0  0  0
    2.2079   -0.0611    0.5254 H   0  0  0  0  0  0
    1.4669    0.6305   -2.2839 H   0  0  0  0  0  0
    2.9811   -0.9640   -2.9956 H   0  0  0  0  0  0
    3.6466   -1.1849   -1.3747 H   0  0  0  0  0  0
    2.7728    2.5082   -2.1996 H   0  0  0  0  0  0
    2.7307    2.3850   -0.4587 H   0  0  0  0  0  0
    5.1189    2.2981   -1.6790 H   0  0  0  0  0  0
    4.8118    1.0098   -0.4578 H   0  0  0  0  0  0
   -1.8326    1.8253   -1.6906 H   0  0  0  0  0  0
    0.7237    2.0500    1.7640 H   0  0  0  0  0  0
    0.2038    4.4567    1.9823 H   0  0  0  0  0  0
   -2.3429    4.2265   -1.4619 H   0  0  0  0  0  0
   -1.3254    5.5364    0.3688 H   0  0  0  0  0  0
  1  2  1  0  0  0
  1  6  2  0  0  0
  1  7  2  0  0  0
  1  9  1  0  0  0
  2  8  1  0  0  0
  2 18  1  0  0  0
  3  4  1  0  0  0
  3  5  3  0  0  0
  4 10  1  0  0  0
  4 12  1  0  0  0
  8 10  1  0  0  0
  8 11  1  0  0  0
  8 19  1  0  0  0
  9 13  2  0  0  0
  9 14  1  0  0  0
 10 20  1  0  0  0
 10 21  1  0  0  0
 11 12  1  0  0  0
 11 22  1  0  0  0
 11 23  1  0  0  0
 12 24  1  0  0  0
 12 25  1  0  0  0
 13 16  1  0  0  0
 13 26  1  0  0  0
 14 15  2  0  0  0
 14 27  1  0  0  0
 15 17  1  0  0  0
 15 28  1  0  0  0
 16 17  2  0  0  0
 16 29  1  0  0  0
 17 30  1  0  0  0
M  END
> <chembl_id>
CHEMBL275080

> <chembl_pref_name>
None

> <s_m_source_file>
sdf/inactives_sanitized.sdf

> <i_m_source_file_index>
28

> <i_lp_mmshare_version>
49012

> <i_m_ct_stereo_status>
1

> <i_f3d_flags>
0

> <s_epik_input>
W2NIXTFbY0hdW2NIXVtjSF1bY0hdYzFTKD1PKSg9TylbTkhdW0NAQEhdKFtDSDJdW0NIMl0yKVtDSDJdTjJDI04=

> <s_epik_cmdline>
J2VwaWtfcHl0aG9uJywgJy1waHQnLCAnMC41JywgJy1waCcsICc3LjUnLCAnLW50JywgJy1tYScsICcyMDAnLCAnLWltYWUnLCAnPGluZmlsZS5tYWU+JywgJy1vbWFlJywgJzxvdXRmaWxlLm1hZT4n

> <r_lp_tautomer_probability>
1

> <r_epik_Ionization_Penalty>
  0.0001

> <r_epik_Ionization_Penalty_Charging>
  0.0000

> <r_epik_Ionization_Penalty_Neutral>
  0.0001

> <r_epik_State_Penalty>
 -0.0000

> <r_epik_Charging_Adjusted_Penalty>
0

> <i_epik_Tot_Q>
0

> <i_epik_Tot_abs_Q>
0

> <s_lp_Force_Field>
OPLS3e

> <r_lp_Energy>
13.176256

> <b_lp_Chiralities_Consistent>
1

> <s_lp_Variant>
sdf/inactives_sanitized.sdf:28-1

$$$$
sdf/inactives_sanitized.sdf:29
                    3D
 Schrodinger Suite 2020-1.
 58 61  0  0  1  0            999 V2000
   -7.3613   -1.9892   -3.0547 C   0  0  0  0  0  0
   -7.3806   -2.3448   -1.2032 S   0  0  0  0  0  0
   -8.7640   -2.2471   -0.7241 O   0  0  0  0  0  0
   -6.5947   -3.5582   -0.9527 O   0  0  0  0  0  0
   -6.4681   -0.9658   -0.5174 C   0  0  0  0  0  0
   -7.1434    0.1558   -0.0329 C   0  0  0  0  0  0
   -6.4231    1.2279    0.4880 C   0  0  0  0  0  0
   -5.0298    1.1828    0.5223 C   0  0  0  0  0  0
   -4.3282    0.0679    0.0381 C   0  0  0  0  0  0
   -5.0713   -1.0042   -0.4804 C   0  0  0  0  0  0
   -2.8343    0.0251    0.0686 C   0  0  0  0  0  0
   -2.1554   -1.1833    0.2786 C   0  0  0  0  0  0
   -0.7643   -1.2263    0.2986 C   0  0  0  0  0  0
   -0.0286   -0.0569    0.1053 C   0  0  0  0  0  0
    1.4939   -0.1022    0.0883 C   0  0  0  0  0  0
    2.0993   -0.0984   -1.3333 C   0  0  2  0  0  0
    1.7031   -1.2646   -2.1277 N   0  0  0  0  0  0
    0.7125   -1.2917   -3.0385 C   0  0  0  0  0  0
    0.0523   -0.2908   -3.3294 O   0  0  0  0  0  0
    0.4610   -2.6644   -3.7163 C   0  0  1  0  0  0
   -0.8789   -2.6816   -4.3565 N   0  0  1  0  0  0
   -0.8289   -3.1155   -5.7653 C   0  0  2  0  0  0
   -0.1729   -4.5239   -5.8163 C   0  0  0  0  0  0
    1.2643   -4.4752   -5.2207 C   0  0  0  0  0  0
    1.5984   -3.0364   -4.7346 C   0  0  1  0  0  0
    1.4949   -2.0739   -5.9564 C   0  0  0  0  0  0
    0.0584   -2.1102   -6.5492 C   0  0  0  0  0  0
    3.5676    0.0021   -1.3035 C   0  0  0  0  0  0
    4.7219    0.0808   -1.2797 N   0  0  0  0  0  0
   -0.6890    1.1536   -0.1005 C   0  0  0  0  0  0
   -2.0801    1.1921   -0.1179 C   0  0  0  0  0  0
   -7.9035   -2.7810   -3.5704 H   0  0  0  0  0  0
   -6.3278   -1.9597   -3.3990 H   0  0  0  0  0  0
   -7.8430   -1.0289   -3.2365 H   0  0  0  0  0  0
   -8.2221    0.2030   -0.0591 H   0  0  0  0  0  0
   -6.9443    2.0952    0.8653 H   0  0  0  0  0  0
   -4.4980    2.0253    0.9394 H   0  0  0  0  0  0
   -4.5622   -1.8716   -0.8745 H   0  0  0  0  0  0
   -2.7024   -2.1018    0.4345 H   0  0  0  0  0  0
   -0.2622   -2.1702    0.4534 H   0  0  0  0  0  0
    1.8710    0.7524    0.6527 H   0  0  0  0  0  0
    1.8400   -0.9779    0.6405 H   0  0  0  0  0  0
    1.7903    0.8198   -1.8380 H   0  0  0  0  0  0
    2.1380   -2.1395   -1.8744 H   0  0  0  0  0  0
    0.4437   -3.3828   -2.8940 H   0  0  0  0  0  0
   -1.4535   -3.3529   -3.8676 H   0  0  0  0  0  0
   -1.8388   -3.1411   -6.1761 H   0  0  0  0  0  0
   -0.7835   -5.2434   -5.2686 H   0  0  0  0  0  0
   -0.1398   -4.8818   -6.8463 H   0  0  0  0  0  0
    1.3554   -5.1832   -4.3955 H   0  0  0  0  0  0
    1.9913   -4.7947   -5.9689 H   0  0  0  0  0  0
    2.5897   -2.9995   -4.2798 H   0  0  0  0  0  0
    1.7637   -1.0556   -5.6727 H   0  0  0  0  0  0
    2.2192   -2.3654   -6.7184 H   0  0  0  0  0  0
   -0.3859   -1.1140   -6.5154 H   0  0  0  0  0  0
    0.0946   -2.3871   -7.6038 H   0  0  0  0  0  0
   -0.1270    2.0626   -0.2595 H   0  0  0  0  0  0
   -2.5673    2.1393   -0.2960 H   0  0  0  0  0  0
  1  2  1  0  0  0
  1 32  1  0  0  0
  1 33  1  0  0  0
  1 34  1  0  0  0
  2  3  2  0  0  0
  2  4  2  0  0  0
  2  5  1  0  0  0
  5  6  2  0  0  0
  5 10  1  0  0  0
  6  7  1  0  0  0
  6 35  1  0  0  0
  7  8  2  0  0  0
  7 36  1  0  0  0
  8  9  1  0  0  0
  8 37  1  0  0  0
  9 10  2  0  0  0
  9 11  1  0  0  0
 10 38  1  0  0  0
 11 12  2  0  0  0
 11 31  1  0  0  0
 12 13  1  0  0  0
 12 39  1  0  0  0
 13 14  2  0  0  0
 13 40  1  0  0  0
 14 15  1  0  0  0
 14 30  1  0  0  0
 15 16  1  0  0  0
 15 41  1  0  0  0
 15 42  1  0  0  0
 16 17  1  0  0  0
 16 28  1  0  0  0
 16 43  1  0  0  0
 17 18  1  0  0  0
 17 44  1  0  0  0
 18 19  2  0  0  0
 18 20  1  0  0  0
 20 21  1  0  0  0
 20 25  1  0  0  0
 20 45  1  0  0  0
 21 22  1  0  0  0
 21 46  1  0  0  0
 22 23  1  0  0  0
 22 27  1  0  0  0
 22 47  1  0  0  0
 23 24  1  0  0  0
 23 48  1  0  0  0
 23 49  1  0  0  0
 24 25  1  0  0  0
 24 50  1  0  0  0
 24 51  1  0  0  0
 25 26  1  0  0  0
 25 52  1  0  0  0
 26 27  1  0  0  0
 26 53  1  0  0  0
 26 54  1  0  0  0
 27 55  1  0  0  0
 27 56  1  0  0  0
 28 29  3  0  0  0
 30 31  2  0  0  0
 30 57  1  0  0  0
 31 58  1  0  0  0
M  END
> <chembl_id>
CHEMBL3695337

> <chembl_pref_name>
None

> <i_m_ct_stereo_status>
1

> <s_m_source_file>
sdf/inactives_sanitized.sdf

> <i_m_source_file_index>
29

> <i_lp_mmshare_version>
49012

> <i_f3d_flags>
0

> <s_epik_input>
W0NIM11TKD1PKSg9TyljMVtjSF1bY0hdW2NIXWMoW2NIXTEpLWMyW2NIXVtjSF1jKFtjSF1bY0hdMilbQ0gyXVtDQEBIXShDI04pW05IXUMoPU8pW0NAQEhdKFtOSF1bQ0BIXTM0KVtDQEBIXShbQ0gyXVtDSDJdMylbQ0gyXVtDSDJdNA==

> <s_epik_cmdline>
J2VwaWtfcHl0aG9uJywgJy1waHQnLCAnMC41JywgJy1waCcsICc3LjUnLCAnLW50JywgJy1tYScsICcyMDAnLCAnLWltYWUnLCAnPGluZmlsZS5tYWU+JywgJy1vbWFlJywgJzxvdXRmaWxlLm1hZT4n

> <r_epik_Ionization_Penalty>
  0.4101

> <r_epik_Ionization_Penalty_Charging>
  0.0000

> <r_epik_Ionization_Penalty_Neutral>
  0.4101

> <r_epik_State_Penalty>
  0.4100

> <r_epik_Charging_Adjusted_Penalty>
0.410033589345069

> <i_epik_Tot_Q>
0

> <i_epik_Tot_abs_Q>
0

> <s_lp_Force_Field>
OPLS3e

> <r_lp_Energy>
40.052171

> <b_lp_Chiralities_Consistent>
1

> <s_lp_Variant>
sdf/inactives_sanitized.sdf:29-1

$$$$
sdf/inactives_sanitized.sdf:29
                    3D
 Schrodinger Suite 2020-1.
 59 62  0  0  1  0            999 V2000
   -7.4908   -2.4297   -2.5295 C   0  0  0  0  0  0
   -7.4337   -2.3063   -0.6489 S   0  0  0  0  0  0
   -8.7980   -2.0895   -0.1540 O   0  0  0  0  0  0
   -6.6269   -3.4178   -0.1325 O   0  0  0  0  0  0
   -6.5084   -0.7993   -0.3695 C   0  0  0  0  0  0
   -7.1744    0.4102   -0.1649 C   0  0  0  0  0  0
   -6.4441    1.5779    0.0416 C   0  0  0  0  0  0
   -5.0500    1.5396    0.0411 C   0  0  0  0  0  0
   -4.3580    0.3361   -0.1648 C   0  0  0  0  0  0
   -5.1110   -0.8306   -0.3694 C   0  0  0  0  0  0
   -2.8639    0.2976   -0.1712 C   0  0  0  0  0  0
   -2.1733   -0.8172    0.3242 C   0  0  0  0  0  0
   -0.7818   -0.8584    0.3121 C   0  0  0  0  0  0
   -0.0578    0.2182   -0.1995 C   0  0  0  0  0  0
    1.4636    0.1641   -0.2306 C   0  0  0  0  0  0
    2.0216   -0.6607   -1.4090 C   0  0  2  0  0  0
    3.4837   -0.7373   -1.3463 N   0  0  0  0  0  0
    4.2768   -1.3707   -2.2296 C   0  0  0  0  0  0
    3.8270   -1.9879   -3.1986 O   0  0  0  0  0  0
    5.7988   -1.2732   -1.9478 C   0  0  1  0  0  0
    6.4985   -2.2253   -2.9636 N   0  3  0  0  0  0
    7.5857   -1.5043   -3.7968 C   0  0  2  0  0  0
    8.5970   -0.9083   -2.7844 C   0  0  0  0  0  0
    7.8913    0.0912   -1.8229 C   0  0  0  0  0  0
    6.3664    0.1792   -2.1184 C   0  0  1  0  0  0
    6.1990    0.6336   -3.6019 C   0  0  0  0  0  0
    6.8736   -0.3711   -4.5774 C   0  0  0  0  0  0
    1.5446   -0.1572   -2.7146 C   0  0  0  0  0  0
    1.1717    0.2379   -3.7365 N   0  0  0  0  0  0
   -0.7302    1.3360   -0.6936 C   0  0  0  0  0  0
   -2.1215    1.3734   -0.6775 C   0  0  0  0  0  0
   -8.0371   -3.3309   -2.8063 H   0  0  0  0  0  0
   -6.4720   -2.4794   -2.9129 H   0  0  0  0  0  0
   -7.9971   -1.5505   -2.9276 H   0  0  0  0  0  0
   -8.2538    0.4517   -0.1663 H   0  0  0  0  0  0
   -6.9582    2.5138    0.2031 H   0  0  0  0  0  0
   -4.5097    2.4590    0.2128 H   0  0  0  0  0  0
   -4.6096   -1.7710   -0.5461 H   0  0  0  0  0  0
   -2.7113   -1.6607    0.7318 H   0  0  0  0  0  0
   -0.2701   -1.7286    0.6969 H   0  0  0  0  0  0
    1.8635    1.1797   -0.2575 H   0  0  0  0  0  0
    1.8107   -0.2526    0.7168 H   0  0  0  0  0  0
    1.6342   -1.6781   -1.3237 H   0  0  0  0  0  0
    3.9088   -0.3473   -0.5178 H   0  0  0  0  0  0
    5.9756   -1.7012   -0.9595 H   0  0  0  0  0  0
    6.9259   -2.9923   -2.4640 H   0  0  0  0  0  0
    8.0271   -2.2585   -4.4500 H   0  0  0  0  0  0
    9.0721   -1.7076   -2.2130 H   0  0  0  0  0  0
    9.4034   -0.4046   -3.3199 H   0  0  0  0  0  0
    8.0560   -0.2072   -0.7862 H   0  0  0  0  0  0
    8.3442    1.0797   -1.9172 H   0  0  0  0  0  0
    5.8845    0.8823   -1.4368 H   0  0  0  0  0  0
    5.1449    0.7579   -3.8548 H   0  0  0  0  0  0
    6.6409    1.6230   -3.7317 H   0  0  0  0  0  0
    6.1270   -0.7945   -5.2517 H   0  0  0  0  0  0
    7.5903    0.1498   -5.2142 H   0  0  0  0  0  0
   -0.1793    2.1724   -1.0987 H   0  0  0  0  0  0
   -2.6191    2.2442   -1.0786 H   0  0  0  0  0  0
    5.8029   -2.6107   -3.5878 H   0  0  0  0  0  0
  1  2  1  0  0  0
  1 32  1  0  0  0
  1 33  1  0  0  0
  1 34  1  0  0  0
  2  3  2  0  0  0
  2  4  2  0  0  0
  2  5  1  0  0  0
  5  6  2  0  0  0
  5 10  1  0  0  0
  6  7  1  0  0  0
  6 35  1  0  0  0
  7  8  2  0  0  0
  7 36  1  0  0  0
  8  9  1  0  0  0
  8 37  1  0  0  0
  9 10  2  0  0  0
  9 11  1  0  0  0
 10 38  1  0  0  0
 11 12  2  0  0  0
 11 31  1  0  0  0
 12 13  1  0  0  0
 12 39  1  0  0  0
 13 14  2  0  0  0
 13 40  1  0  0  0
 14 15  1  0  0  0
 14 30  1  0  0  0
 15 16  1  0  0  0
 15 41  1  0  0  0
 15 42  1  0  0  0
 16 17  1  0  0  0
 16 28  1  0  0  0
 16 43  1  0  0  0
 17 18  1  0  0  0
 17 44  1  0  0  0
 18 19  2  0  0  0
 18 20  1  0  0  0
 20 21  1  0  0  0
 20 25  1  0  0  0
 20 45  1  0  0  0
 21 22  1  0  0  0
 21 46  1  0  0  0
 21 59  1  0  0  0
 22 23  1  0  0  0
 22 27  1  0  0  0
 22 47  1  0  0  0
 23 24  1  0  0  0
 23 48  1  0  0  0
 23 49  1  0  0  0
 24 25  1  0  0  0
 24 50  1  0  0  0
 24 51  1  0  0  0
 25 26  1  0  0  0
 25 52  1  0  0  0
 26 27  1  0  0  0
 26 53  1  0  0  0
 26 54  1  0  0  0
 27 55  1  0  0  0
 27 56  1  0  0  0
 28 29  3  0  0  0
 30 31  2  0  0  0
 30 57  1  0  0  0
 31 58  1  0  0  0
M  CHG  1  21   1
M  END
> <chembl_id>
CHEMBL3695337

> <chembl_pref_name>
None

> <i_m_ct_stereo_status>
1

> <s_m_source_file>
sdf/inactives_sanitized.sdf

> <i_m_source_file_index>
29

> <i_lp_mmshare_version>
49012

> <i_f3d_flags>
0

> <s_epik_input>
W0NIM11TKD1PKSg9TyljMVtjSF1bY0hdW2NIXWMoW2NIXTEpLWMyW2NIXVtjSF1jKFtjSF1bY0hdMilbQ0gyXVtDQEBIXShDI04pW05IXUMoPU8pW0NAQEhdKFtOSF1bQ0BIXTM0KVtDQEBIXShbQ0gyXVtDSDJdMylbQ0gyXVtDSDJdNA==

> <s_epik_cmdline>
J2VwaWtfcHl0aG9uJywgJy1waHQnLCAnMC41JywgJy1waCcsICc3LjUnLCAnLW50JywgJy1tYScsICcyMDAnLCAnLWltYWUnLCAnPGluZmlsZS5tYWU+JywgJy1vbWFlJywgJzxvdXRmaWxlLm1hZT4n

> <r_epik_Ionization_Penalty>
  0.4114

> <r_epik_Ionization_Penalty_Charging>
  0.4113

> <r_epik_Ionization_Penalty_Neutral>
  0.0002

> <r_epik_State_Penalty>
  0.4113

> <r_epik_Charging_Adjusted_Penalty>
0.822612897831462

> <i_epik_Tot_Q>
1

> <i_epik_Tot_abs_Q>
1

> <s_lp_Force_Field>
OPLS3e

> <r_lp_Energy>
45.32732

> <b_lp_Chiralities_Consistent>
1

> <s_lp_Variant>
sdf/inactives_sanitized.sdf:29-2

$$$$
sdf/inactives_sanitized.sdf:30
                    3D
 Schrodinger Suite 2020-1.
 49 51  0  0  1  0            999 V2000
   -0.7380    2.0943   -1.0978 C   0  0  0  0  0  0
   -1.1979    3.4177   -1.1644 C   0  0  0  0  0  0
   -1.4479    4.0862    0.0439 C   0  0  0  0  0  0
   -1.2319    3.4605    1.2714 C   0  0  0  0  0  0
   -0.7523    2.1534    1.3142 C   0  0  0  0  0  0
   -0.4969    1.4641    0.1275 C   0  0  0  0  0  0
    0.0638    0.0452    0.1634 C   0  0  0  0  0  0
    1.6136   -0.0040    0.0440 C   0  0  2  0  0  0
    2.1116    0.6243   -1.1855 N   0  0  0  0  0  0
    2.1149   -1.4593    0.0996 C   0  0  0  0  0  0
    1.8982   -2.2190   -0.8467 O   0  0  0  0  0  0
    2.7418   -1.8354    1.2267 N   0  0  0  0  0  0
    3.3128   -3.1624    1.4361 C   0  0  0  0  0  0
    4.4417   -3.4501    0.5331 C   0  0  0  0  0  0
    5.3279   -3.6758   -0.1757 N   0  0  0  0  0  0
    2.6405    1.8590   -1.2878 C   0  0  0  0  0  0
    2.7832    2.6162   -0.3252 O   0  0  0  0  0  0
    2.9938    2.3108   -2.6856 C   0  0  0  0  0  0
    2.9718    3.6777   -2.9970 C   0  0  0  0  0  0
    3.2792    4.1133   -4.2831 C   0  0  0  0  0  0
    3.6164    3.1851   -5.2642 C   0  0  0  0  0  0
    3.6503    1.8248   -4.9702 C   0  0  0  0  0  0
    3.3406    1.3874   -3.6850 C   0  0  0  0  0  0
   -1.3943    4.0955   -2.4828 C   0  0  0  0  0  0
   -1.2119    5.4815   -2.6234 C   0  0  0  0  0  0
   -1.3899    6.0764   -3.8736 C   0  0  0  0  0  0
   -1.7365    5.3757   -4.9812 N   0  0  0  0  0  0
   -1.9137    4.0385   -4.8464 C   0  0  0  0  0  0
   -1.7543    3.3702   -3.6313 C   0  0  0  0  0  0
   -0.5198    1.5532   -2.0068 H   0  0  0  0  0  0
   -1.8168    5.1012    0.0431 H   0  0  0  0  0  0
   -1.4293    3.9930    2.1902 H   0  0  0  0  0  0
   -0.5720    1.6829    2.2698 H   0  0  0  0  0  0
   -0.2719   -0.4417    1.0813 H   0  0  0  0  0  0
   -0.4108   -0.5280   -0.6360 H   0  0  0  0  0  0
    2.0193    0.5291    0.9073 H   0  0  0  0  0  0
    2.0306    0.0611   -2.0194 H   0  0  0  0  0  0
    2.8980   -1.1523    1.9539 H   0  0  0  0  0  0
    3.6760   -3.2338    2.4612 H   0  0  0  0  0  0
    2.5537   -3.9362    1.3103 H   0  0  0  0  0  0
    2.7066    4.4123   -2.2494 H   0  0  0  0  0  0
    3.2547    5.1671   -4.5184 H   0  0  0  0  0  0
    3.8543    3.5234   -6.2619 H   0  0  0  0  0  0
    3.9153    1.1111   -5.7363 H   0  0  0  0  0  0
    3.3769    0.3271   -3.4784 H   0  0  0  0  0  0
   -0.9218    6.0957   -1.7840 H   0  0  0  0  0  0
   -1.2490    7.1396   -4.0014 H   0  0  0  0  0  0
   -2.1913    3.4976   -5.7392 H   0  0  0  0  0  0
   -1.9181    2.3034   -3.5917 H   0  0  0  0  0  0
  1  6  2  0  0  0
  1  2  1  0  0  0
  1 30  1  0  0  0
  2  3  2  0  0  0
  2 24  1  0  0  0
  3  4  1  0  0  0
  3 31  1  0  0  0
  4  5  2  0  0  0
  4 32  1  0  0  0
  5  6  1  0  0  0
  5 33  1  0  0  0
  6  7  1  0  0  0
  7  8  1  0  0  0
  7 34  1  0  0  0
  7 35  1  0  0  0
  8  9  1  0  0  0
  8 10  1  0  0  0
  8 36  1  0  0  0
  9 16  1  0  0  0
  9 37  1  0  0  0
 10 11  2  0  0  0
 10 12  1  0  0  0
 12 13  1  0  0  0
 12 38  1  0  0  0
 13 14  1  0  0  0
 13 39  1  0  0  0
 13 40  1  0  0  0
 14 15  3  0  0  0
 16 17  2  0  0  0
 16 18  1  0  0  0
 18 19  2  0  0  0
 18 23  1  0  0  0
 19 20  1  0  0  0
 19 41  1  0  0  0
 20 21  2  0  0  0
 20 42  1  0  0  0
 21 22  1  0  0  0
 21 43  1  0  0  0
 22 23  2  0  0  0
 22 44  1  0  0  0
 23 45  1  0  0  0
 24 25  2  0  0  0
 24 29  1  0  0  0
 25 26  1  0  0  0
 25 46  1  0  0  0
 26 27  2  0  0  0
 26 47  1  0  0  0
 27 28  1  0  0  0
 28 29  2  0  0  0
 28 48  1  0  0  0
 29 49  1  0  0  0
M  END
> <chembl_id>
CHEMBL556504

> <chembl_pref_name>
None

> <i_m_ct_stereo_status>
1

> <s_m_source_file>
sdf/inactives_sanitized.sdf

> <i_m_source_file_index>
30

> <i_lp_mmshare_version>
49012

> <i_f3d_flags>
0

> <s_epik_input>
W2NIXTFbY0hdbltjSF1bY0hdYzEtYzJbY0hdYyhbY0hdW2NIXVtjSF0yKVtDSDJdW0NAQEhdKEMoPU8pW05IXVtDSDJdQyNOKVtOSF1DKD1PKWMzW2NIXVtjSF1bY0hdW2NIXVtjSF0z

> <s_epik_cmdline>
J2VwaWtfcHl0aG9uJywgJy1waHQnLCAnMC41JywgJy1waCcsICc3LjUnLCAnLW50JywgJy1tYScsICcyMDAnLCAnLWltYWUnLCAnPGluZmlsZS5tYWU+JywgJy1vbWFlJywgJzxvdXRmaWxlLm1hZT4n

> <r_lp_tautomer_probability>
1

> <r_epik_Ionization_Penalty>
  0.0032

> <r_epik_Ionization_Penalty_Charging>
  0.0000

> <r_epik_Ionization_Penalty_Neutral>
  0.0032

> <r_epik_State_Penalty>
 -0.0000

> <r_epik_Charging_Adjusted_Penalty>
0

> <i_epik_Tot_Q>
0

> <i_epik_Tot_abs_Q>
0

> <s_lp_Force_Field>
OPLS3e

> <r_lp_Energy>
37.995274

> <b_lp_Chiralities_Consistent>
1

> <s_lp_Variant>
sdf/inactives_sanitized.sdf:30-1

$$$$
sdf/inactives_sanitized.sdf:31
                    3D
 Schrodinger Suite 2020-1.
 34 35  0  0  1  0            999 V2000
   -0.6392    1.2423   -0.0504 C   0  0  0  0  0  0
    0.0224    0.0278    0.0310 N   0  0  0  0  0  0
   -0.5415   -1.2357    0.1750 C   0  0  0  0  0  0
   -1.9286   -1.1952    0.0779 N   0  0  0  0  0  0
   -2.6995   -0.0319    0.1421 N   0  0  0  0  0  0
   -2.0909    1.0905    0.0556 C   0  0  0  0  0  0
    0.1095   -2.2750    0.3313 O   0  0  0  0  0  0
   -2.9145    2.2810    0.0758 C   0  0  0  0  0  0
   -3.6064    3.2090    0.0947 N   0  0  0  0  0  0
   -0.0940    2.3406   -0.1893 O   0  0  0  0  0  0
    1.5038    0.0863   -0.0197 C   0  0  0  0  0  0
    2.0755   -0.0311   -1.4466 C   0  0  0  0  0  0
    3.6067    0.0511   -1.4717 C   0  0  0  0  0  0
   -2.6888   -2.3932    0.0426 C   0  0  0  0  0  0
   -3.7543   -2.5872    0.9358 C   0  0  0  0  0  0
   -4.5070   -3.7593    0.8951 C   0  0  0  0  0  0
   -4.2082   -4.7501   -0.0381 C   0  0  0  0  0  0
   -3.1533   -4.5796   -0.9420 C   0  0  0  0  0  0
   -2.4018   -3.3985   -0.8963 C   0  0  0  0  0  0
   -2.8273   -5.6671   -1.9648 C   0  0  0  0  0  0
   -1.5320   -5.6646   -2.2847 F   0  0  0  0  0  0
   -3.1342   -6.8800   -1.5010 F   0  0  0  0  0  0
   -3.5365   -5.4453   -3.0711 F   0  0  0  0  0  0
    1.9471   -0.6901    0.6067 H   0  0  0  0  0  0
    1.8726    1.0074    0.4359 H   0  0  0  0  0  0
    1.7652   -0.9771   -1.8926 H   0  0  0  0  0  0
    1.6698    0.7638   -2.0739 H   0  0  0  0  0  0
    3.9842   -0.0334   -2.4911 H   0  0  0  0  0  0
    4.0560   -0.7510   -0.8851 H   0  0  0  0  0  0
    3.9588    1.0005   -1.0664 H   0  0  0  0  0  0
   -4.0006   -1.8340    1.6706 H   0  0  0  0  0  0
   -5.3234   -3.9000    1.5881 H   0  0  0  0  0  0
   -4.8052   -5.6505   -0.0571 H   0  0  0  0  0  0
   -1.5944   -3.2561   -1.6008 H   0  0  0  0  0  0
  1  6  1  0  0  0
  1  2  1  0  0  0
  1 10  2  0  0  0
  2  3  1  0  0  0
  2 11  1  0  0  0
  3  7  2  0  0  0
  3  4  1  0  0  0
  4 14  1  0  0  0
  4  5  1  0  0  0
  5  6  2  0  0  0
  6  8  1  0  0  0
  8  9  3  0  0  0
 11 12  1  0  0  0
 11 24  1  0  0  0
 11 25  1  0  0  0
 12 13  1  0  0  0
 12 26  1  0  0  0
 12 27  1  0  0  0
 13 28  1  0  0  0
 13 29  1  0  0  0
 13 30  1  0  0  0
 14 15  2  0  0  0
 14 19  1  0  0  0
 15 16  1  0  0  0
 15 31  1  0  0  0
 16 17  2  0  0  0
 16 32  1  0  0  0
 17 18  1  0  0  0
 17 33  1  0  0  0
 18 19  2  0  0  0
 18 20  1  0  0  0
 19 34  1  0  0  0
 20 21  1  0  0  0
 20 22  1  0  0  0
 20 23  1  0  0  0
M  END
> <chembl_id>
CHEMBL1077304

> <chembl_pref_name>
None

> <s_m_source_file>
sdf/inactives_sanitized.sdf

> <i_m_source_file_index>
31

> <i_lp_mmshare_version>
49012

> <i_m_ct_stereo_status>
1

> <i_f3d_flags>
0

> <s_epik_input>
W0NIM11bQ0gyXVtDSDJdbihjMT1PKWMoPU8pbihuYzFDI04pLWMyW2NIXVtjSF1bY0hdYyhbY0hdMilDKEYpKEYpRg==

> <s_epik_cmdline>
J2VwaWtfcHl0aG9uJywgJy1waHQnLCAnMC41JywgJy1waCcsICc3LjUnLCAnLW50JywgJy1tYScsICcyMDAnLCAnLWltYWUnLCAnPGluZmlsZS5tYWU+JywgJy1vbWFlJywgJzxvdXRmaWxlLm1hZT4n

> <r_lp_tautomer_probability>
1

> <r_epik_Ionization_Penalty>
  0.0000

> <r_epik_Ionization_Penalty_Charging>
  0.0000

> <r_epik_Ionization_Penalty_Neutral>
  0.0000

> <r_epik_State_Penalty>
 -0.0000

> <r_epik_Charging_Adjusted_Penalty>
1.76235455904074e-12

> <i_epik_Tot_Q>
0

> <i_epik_Tot_abs_Q>
0

> <s_lp_Force_Field>
OPLS3e

> <r_lp_Energy>
55.896418

> <b_lp_Chiralities_Consistent>
1

> <s_lp_Variant>
sdf/inactives_sanitized.sdf:31-1

$$$$
sdf/inactives_sanitized.sdf:32
                    3D
 Schrodinger Suite 2020-1.
 37 38  0  0  1  0            999 V2000
   -0.5750    1.2524   -0.0192 C   0  0  0  0  0  0
    0.0198    0.0076    0.1082 N   0  0  0  0  0  0
   -0.6097   -1.2094    0.3472 C   0  0  0  0  0  0
   -1.9921   -1.0999    0.2498 N   0  0  0  0  0  0
   -2.6905    0.1063    0.3169 N   0  0  0  0  0  0
   -2.0283    1.1882    0.1444 C   0  0  0  0  0  0
   -0.0161   -2.2729    0.5567 O   0  0  0  0  0  0
   -2.7851    2.4223    0.1376 C   0  0  0  0  0  0
   -3.4251    3.3870    0.1351 N   0  0  0  0  0  0
    0.0262    2.3100   -0.2263 O   0  0  0  0  0  0
    1.4993   -0.0253    0.0117 C   0  0  0  0  0  0
    2.2123    0.1835    1.3632 C   0  0  0  0  0  0
    3.7394    0.1317    1.2325 C   0  0  0  0  0  0
   -2.8042   -2.3386    0.1529 C   0  0  0  0  0  0
   -4.0372   -2.2610   -0.7948 C   0  0  0  0  0  0
   -4.8617   -3.5618   -0.8498 C   0  0  0  0  0  0
   -5.2561   -4.0555    0.5507 C   0  0  0  0  0  0
   -4.0191   -4.2344    1.4444 C   0  0  0  0  0  0
   -3.1666   -2.9531    1.5328 C   0  0  0  0  0  0
    1.8361   -0.9672   -0.4259 H   0  0  0  0  0  0
    1.8580    0.7204   -0.7006 H   0  0  0  0  0  0
    1.9275    1.1474    1.7873 H   0  0  0  0  0  0
    1.8929   -0.5811    2.0725 H   0  0  0  0  0  0
    4.2182    0.2862    2.1999 H   0  0  0  0  0  0
    4.1051    0.9044    0.5553 H   0  0  0  0  0  0
    4.0710   -0.8341    0.8500 H   0  0  0  0  0  0
   -2.1877   -3.1011   -0.3319 H   0  0  0  0  0  0
   -4.7049   -1.4650   -0.4611 H   0  0  0  0  0  0
   -3.7158   -1.9968   -1.8035 H   0  0  0  0  0  0
   -5.7565   -3.4081   -1.4543 H   0  0  0  0  0  0
   -4.2834   -4.3352   -1.3574 H   0  0  0  0  0  0
   -5.9428   -3.3440    1.0121 H   0  0  0  0  0  0
   -5.7984   -4.9987    0.4738 H   0  0  0  0  0  0
   -4.3261   -4.5437    2.4442 H   0  0  0  0  0  0
   -3.4064   -5.0477    1.0520 H   0  0  0  0  0  0
   -2.2585   -3.1748    2.0953 H   0  0  0  0  0  0
   -3.7195   -2.2137    2.1143 H   0  0  0  0  0  0
  1 10  2  0  0  0
  1  6  1  0  0  0
  1  2  1  0  0  0
  2  3  1  0  0  0
  2 11  1  0  0  0
  3  7  2  0  0  0
  3  4  1  0  0  0
  4  5  1  0  0  0
  4 14  1  0  0  0
  5  6  2  0  0  0
  6  8  1  0  0  0
  8  9  3  0  0  0
 11 12  1  0  0  0
 11 20  1  0  0  0
 11 21  1  0  0  0
 12 13  1  0  0  0
 12 22  1  0  0  0
 12 23  1  0  0  0
 13 24  1  0  0  0
 13 25  1  0  0  0
 13 26  1  0  0  0
 14 15  1  0  0  0
 14 19  1  0  0  0
 14 27  1  0  0  0
 15 16  1  0  0  0
 15 28  1  0  0  0
 15 29  1  0  0  0
 16 17  1  0  0  0
 16 30  1  0  0  0
 16 31  1  0  0  0
 17 18  1  0  0  0
 17 32  1  0  0  0
 17 33  1  0  0  0
 18 19  1  0  0  0
 18 34  1  0  0  0
 18 35  1  0  0  0
 19 36  1  0  0  0
 19 37  1  0  0  0
M  END
> <chembl_id>
CHEMBL1078992

> <chembl_pref_name>
None

> <s_m_source_file>
sdf/inactives_sanitized.sdf

> <i_m_source_file_index>
32

> <i_lp_mmshare_version>
49012

> <i_m_ct_stereo_status>
1

> <i_f3d_flags>
0

> <s_epik_input>
W0NIM11bQ0gyXVtDSDJdbihjMT1PKWMoPU8pbihuYzFDI04pW0NIXTJbQ0gyXVtDSDJdW0NIMl1bQ0gyXVtDSDJdMg==

> <s_epik_cmdline>
J2VwaWtfcHl0aG9uJywgJy1waHQnLCAnMC41JywgJy1waCcsICc3LjUnLCAnLW50JywgJy1tYScsICcyMDAnLCAnLWltYWUnLCAnPGluZmlsZS5tYWU+JywgJy1vbWFlJywgJzxvdXRmaWxlLm1hZT4n

> <r_lp_tautomer_probability>
1

> <r_epik_Ionization_Penalty>
  0.0000

> <r_epik_Ionization_Penalty_Charging>
  0.0000

> <r_epik_Ionization_Penalty_Neutral>
  0.0000

> <r_epik_State_Penalty>
 -0.0000

> <r_epik_Charging_Adjusted_Penalty>
3.80505978732854e-12

> <i_epik_Tot_Q>
0

> <i_epik_Tot_abs_Q>
0

> <s_lp_Force_Field>
OPLS3e

> <r_lp_Energy>
41.792101

> <b_lp_Chiralities_Consistent>
1

> <s_lp_Variant>
sdf/inactives_sanitized.sdf:32-1

$$$$
sdf/inactives_sanitized.sdf:33
                    3D
 Schrodinger Suite 2020-1.
 37 38  0  0  1  0            999 V2000
   -0.6208    1.1526    0.0100 C   0  0  0  0  0  0
    0.0109   -0.0787   -0.0593 N   0  0  0  0  0  0
   -0.5848   -1.3308   -0.1665 C   0  0  0  0  0  0
   -1.9647   -1.2567   -0.0157 N   0  0  0  0  0  0
   -2.7142   -0.0802   -0.0769 N   0  0  0  0  0  0
   -2.0790    1.0303   -0.0378 C   0  0  0  0  0  0
    0.0357   -2.3860   -0.3402 O   0  0  0  0  0  0
   -2.8780    2.2375   -0.0550 C   0  0  0  0  0  0
   -3.5520    3.1787   -0.0682 N   0  0  0  0  0  0
   -0.0465    2.2422    0.0872 O   0  0  0  0  0  0
    1.4938   -0.0547   -0.0626 C   0  0  0  0  0  0
    2.1071    0.0745   -1.4722 C   0  0  0  0  0  0
    3.6441    0.0974   -1.4438 C   0  0  0  0  0  0
   -2.7456   -2.4371    0.0335 C   0  0  0  0  0  0
    4.2657    0.2453   -2.8391 C   0  0  0  0  0  0
   -2.5004   -3.4122    1.0120 C   0  0  0  0  0  0
   -3.2756   -4.5690    1.0638 C   0  0  0  0  0  0
   -4.3021   -4.7651    0.1415 C   0  0  0  0  0  0
   -4.5663   -3.8050   -0.8426 C   0  0  0  0  0  0
   -3.7856   -2.6431   -0.8871 C   0  0  0  0  0  0
   -5.6889   -4.0209   -1.8565 C   0  0  0  0  0  0
   -5.4049   -3.4458   -3.0267 F   0  0  0  0  0  0
   -5.9051   -5.3188   -2.0780 F   0  0  0  0  0  0
   -6.8105   -3.4810   -1.3806 F   0  0  0  0  0  0
    1.8961   -0.9475    0.4202 H   0  0  0  0  0  0
    1.8686    0.7560    0.5655 H   0  0  0  0  0  0
    1.7739   -0.7576   -2.0944 H   0  0  0  0  0  0
    1.7451    0.9887   -1.9452 H   0  0  0  0  0  0
    3.9864    0.9186   -0.8124 H   0  0  0  0  0  0
    4.0155   -0.8189   -0.9823 H   0  0  0  0  0  0
    5.3544    0.2588   -2.7802 H   0  0  0  0  0  0
    3.9492    1.1730   -3.3172 H   0  0  0  0  0  0
    3.9802   -0.5819   -3.4899 H   0  0  0  0  0  0
   -1.7114   -3.2744    1.7377 H   0  0  0  0  0  0
   -3.0812   -5.3146    1.8207 H   0  0  0  0  0  0
   -4.8934   -5.6675    0.1987 H   0  0  0  0  0  0
   -3.9844   -1.8979   -1.6446 H   0  0  0  0  0  0
  1  6  1  0  0  0
  1  2  1  0  0  0
  1 10  2  0  0  0
  2  3  1  0  0  0
  2 11  1  0  0  0
  3  7  2  0  0  0
  3  4  1  0  0  0
  4 14  1  0  0  0
  4  5  1  0  0  0
  5  6  2  0  0  0
  6  8  1  0  0  0
  8  9  3  0  0  0
 11 12  1  0  0  0
 11 25  1  0  0  0
 11 26  1  0  0  0
 12 13  1  0  0  0
 12 27  1  0  0  0
 12 28  1  0  0  0
 13 15  1  0  0  0
 13 29  1  0  0  0
 13 30  1  0  0  0
 14 16  2  0  0  0
 14 20  1  0  0  0
 15 31  1  0  0  0
 15 32  1  0  0  0
 15 33  1  0  0  0
 16 17  1  0  0  0
 16 34  1  0  0  0
 17 18  2  0  0  0
 17 35  1  0  0  0
 18 19  1  0  0  0
 18 36  1  0  0  0
 19 20  2  0  0  0
 19 21  1  0  0  0
 20 37  1  0  0  0
 21 22  1  0  0  0
 21 23  1  0  0  0
 21 24  1  0  0  0
M  END
> <chembl_id>
CHEMBL1078994

> <chembl_pref_name>
None

> <s_m_source_file>
sdf/inactives_sanitized.sdf

> <i_m_source_file_index>
33

> <i_lp_mmshare_version>
49012

> <i_m_ct_stereo_status>
1

> <i_f3d_flags>
0

> <s_epik_input>
W0NIM11bQ0gyXVtDSDJdW0NIMl1uKGMxPU8pYyg9TyluKG5jMUMjTiktYzJbY0hdW2NIXVtjSF1jKFtjSF0yKUMoRikoRilG

> <s_epik_cmdline>
J2VwaWtfcHl0aG9uJywgJy1waHQnLCAnMC41JywgJy1waCcsICc3LjUnLCAnLW50JywgJy1tYScsICcyMDAnLCAnLWltYWUnLCAnPGluZmlsZS5tYWU+JywgJy1vbWFlJywgJzxvdXRmaWxlLm1hZT4n

> <r_lp_tautomer_probability>
1

> <r_epik_Ionization_Penalty>
  0.0000

> <r_epik_Ionization_Penalty_Charging>
  0.0000

> <r_epik_Ionization_Penalty_Neutral>
  0.0000

> <r_epik_State_Penalty>
 -0.0000

> <r_epik_Charging_Adjusted_Penalty>
1.89864892475911e-12

> <i_epik_Tot_Q>
0

> <i_epik_Tot_abs_Q>
0

> <s_lp_Force_Field>
OPLS3e

> <r_lp_Energy>
56.051952

> <b_lp_Chiralities_Consistent>
1

> <s_lp_Variant>
sdf/inactives_sanitized.sdf:33-1

$$$$
sdf/inactives_sanitized.sdf:34
                    3D
 Schrodinger Suite 2020-1.
 41 43  0  0  1  0            999 V2000
   -0.6436    1.2326   -0.0319 C   0  0  0  0  0  0
    0.0138    0.0150    0.0511 N   0  0  0  0  0  0
   -0.5577   -1.2471    0.1826 C   0  0  0  0  0  0
   -1.9425   -1.1990    0.0682 N   0  0  0  0  0  0
   -2.7104   -0.0348    0.1418 N   0  0  0  0  0  0
   -2.0968    1.0858    0.0669 C   0  0  0  0  0  0
    0.0848   -2.2919    0.3374 O   0  0  0  0  0  0
   -2.9157    2.2794    0.0921 C   0  0  0  0  0  0
   -3.5866    3.2212    0.1477 N   0  0  0  0  0  0
   -0.0945    2.3292   -0.1681 O   0  0  0  0  0  0
    1.4975    0.0653    0.0090 C   0  0  0  0  0  0
   -2.7042   -2.3936    0.0234 C   0  0  0  0  0  0
   -2.4389   -3.3740   -0.9454 C   0  0  0  0  0  0
   -3.1952   -4.5435   -0.9918 C   0  0  0  0  0  0
   -4.2242   -4.7477   -0.0742 C   0  0  0  0  0  0
   -4.5095   -3.7831    0.8994 C   0  0  0  0  0  0
   -3.7471   -2.6089    0.9387 C   0  0  0  0  0  0
   -5.6349   -4.0079    1.9079 C   0  0  0  0  0  0
   -5.3700   -3.4133    3.0727 F   0  0  0  0  0  0
   -6.7627   -3.4946    1.4175 F   0  0  0  0  0  0
   -5.8289   -5.3068    2.1437 F   0  0  0  0  0  0
    2.0535   -0.0734   -1.4226 C   0  0  0  0  0  0
    3.5731   -0.0235   -1.4465 C   0  0  0  0  0  0
    4.2282    1.2099   -1.5009 C   0  0  0  0  0  0
    5.6198    1.2576   -1.5150 C   0  0  0  0  0  0
    6.3512    0.0721   -1.4747 C   0  0  0  0  0  0
    5.7040   -1.1607   -1.4202 C   0  0  0  0  0  0
    4.3124   -1.2091   -1.4049 C   0  0  0  0  0  0
    1.9074   -0.7282    0.6368 H   0  0  0  0  0  0
    1.8455    1.0050    0.4427 H   0  0  0  0  0  0
   -1.6489   -3.2311   -1.6688 H   0  0  0  0  0  0
   -2.9851   -5.2923   -1.7411 H   0  0  0  0  0  0
   -4.8009   -5.6598   -0.1269 H   0  0  0  0  0  0
   -3.9625   -1.8610    1.6890 H   0  0  0  0  0  0
    1.7266   -1.0131   -1.8716 H   0  0  0  0  0  0
    1.6719    0.7257   -2.0605 H   0  0  0  0  0  0
    3.6614    2.1294   -1.5291 H   0  0  0  0  0  0
    6.1297    2.2088   -1.5560 H   0  0  0  0  0  0
    7.4306    0.1094   -1.4843 H   0  0  0  0  0  0
    6.2790   -2.0745   -1.3887 H   0  0  0  0  0  0
    3.8117   -2.1655   -1.3592 H   0  0  0  0  0  0
  1 10  2  0  0  0
  1  6  1  0  0  0
  1  2  1  0  0  0
  2  3  1  0  0  0
  2 11  1  0  0  0
  3  7  2  0  0  0
  3  4  1  0  0  0
  4  5  1  0  0  0
  4 12  1  0  0  0
  5  6  2  0  0  0
  6  8  1  0  0  0
  8  9  3  0  0  0
 11 22  1  0  0  0
 11 29  1  0  0  0
 11 30  1  0  0  0
 12 17  2  0  0  0
 12 13  1  0  0  0
 13 14  2  0  0  0
 13 31  1  0  0  0
 14 15  1  0  0  0
 14 32  1  0  0  0
 15 16  2  0  0  0
 15 33  1  0  0  0
 16 17  1  0  0  0
 16 18  1  0  0  0
 17 34  1  0  0  0
 18 19  1  0  0  0
 18 20  1  0  0  0
 18 21  1  0  0  0
 22 23  1  0  0  0
 22 35  1  0  0  0
 22 36  1  0  0  0
 23 24  2  0  0  0
 23 28  1  0  0  0
 24 25  1  0  0  0
 24 37  1  0  0  0
 25 26  2  0  0  0
 25 38  1  0  0  0
 26 27  1  0  0  0
 26 39  1  0  0  0
 27 28  2  0  0  0
 27 40  1  0  0  0
 28 41  1  0  0  0
M  END
> <chembl_id>
CHEMBL1079014

> <chembl_pref_name>
None

> <s_m_source_file>
sdf/inactives_sanitized.sdf

> <i_m_source_file_index>
34

> <i_lp_mmshare_version>
49012

> <i_m_ct_stereo_status>
1

> <i_f3d_flags>
0

> <s_epik_input>
W2NIXTFbY0hdW2NIXVtjSF1bY0hdYzFbQ0gyXVtDSDJdbihjMj1PKWMoPU8pbihuYzJDI04pLWMzW2NIXVtjSF1bY0hdYyhbY0hdMylDKEYpKEYpRg==

> <s_epik_cmdline>
J2VwaWtfcHl0aG9uJywgJy1waHQnLCAnMC41JywgJy1waCcsICc3LjUnLCAnLW50JywgJy1tYScsICcyMDAnLCAnLWltYWUnLCAnPGluZmlsZS5tYWU+JywgJy1vbWFlJywgJzxvdXRmaWxlLm1hZT4n

> <r_lp_tautomer_probability>
1

> <r_epik_Ionization_Penalty>
  0.0000

> <r_epik_Ionization_Penalty_Charging>
  0.0000

> <r_epik_Ionization_Penalty_Neutral>
  0.0000

> <r_epik_State_Penalty>
 -0.0000

> <r_epik_Charging_Adjusted_Penalty>
1.19257570003819e-12

> <i_epik_Tot_Q>
0

> <i_epik_Tot_abs_Q>
0

> <s_lp_Force_Field>
OPLS3e

> <r_lp_Energy>
59.86753

> <b_lp_Chiralities_Consistent>
1

> <s_lp_Variant>
sdf/inactives_sanitized.sdf:34-1

$$$$
sdf/inactives_sanitized.sdf:35
                    3D
 Schrodinger Suite 2020-1.
 72 74  0  0  1  0            999 V2000
    2.5539   -0.1240    2.7148 C   0  0  0  0  0  0
    2.3181   -0.7321    1.4866 N   0  0  0  0  0  0
    0.1922    0.2565    0.5557 C   0  0  0  0  0  0
    1.7094    0.0113    0.3690 C   0  0  2  0  0  0
    2.3364    1.0566    3.0006 O   0  0  0  0  0  0
   -0.5022   -0.5669    1.1551 O   0  0  0  0  0  0
    3.0691   -1.0379    3.5594 O   0  0  0  0  0  0
    1.9665   -0.7597   -0.9552 C   0  0  0  0  0  0
   -2.9965    1.2718  -10.0273 O   0  0  0  0  0  0
   -0.2916    1.3757   -0.0062 N   0  0  0  0  0  0
   -4.9090    1.1816   -6.2606 O   0  0  0  0  0  0
   -4.0393    1.6597   -5.2955 C   0  0  0  0  0  0
   -2.4535    2.5816   -3.1655 C   0  0  0  0  0  0
   -1.6005    3.0439   -2.1477 N   0  0  0  0  0  0
   -4.5722    1.0744   -7.6485 C   0  0  0  0  0  0
    3.4171   -0.6831    4.8955 C   0  0  0  0  0  0
   -4.5386    1.6762   -3.9926 C   0  0  0  0  0  0
   -2.7317    2.1128   -5.5238 C   0  0  0  0  0  0
   -3.7589    2.1314   -2.9332 C   0  0  0  0  0  0
   -1.9485    2.5658   -4.4657 C   0  0  0  0  0  0
   -3.4730    0.0373   -7.9823 C   0  0  0  0  0  0
   -4.3743    2.4223   -8.3821 C   0  0  0  0  0  0
    4.0139   -1.8536    5.6734 C   0  0  0  0  0  0
   -4.0904    2.1761   -9.8774 C   0  0  0  0  0  0
   -3.2536   -0.0322   -9.5070 C   0  0  0  0  0  0
    3.4537   -0.9139   -1.3575 C   0  0  0  0  0  0
   -1.7033    1.7493    0.0089 C   0  0  0  0  0  0
   -1.9791    3.0686   -0.7360 C   0  0  0  0  0  0
    4.2506   -1.6820    7.0400 C   0  0  0  0  0  0
    4.3341   -3.0737    5.0622 C   0  0  0  0  0  0
    4.1544    0.4469   -1.5615 C   0  0  0  0  0  0
    3.5994   -1.8350   -2.5883 C   0  0  0  0  0  0
    4.7987   -2.7175    7.7927 C   0  0  0  0  0  0
    4.8814   -4.1093    5.8154 C   0  0  0  0  0  0
    5.1112   -3.9270    7.1769 C   0  0  0  0  0  0
    2.4524   -1.7280    1.3914 H   0  0  0  0  0  0
    2.1996    0.9848    0.2917 H   0  0  0  0  0  0
    1.5131   -1.7506   -0.8817 H   0  0  0  0  0  0
    1.4467   -0.2645   -1.7783 H   0  0  0  0  0  0
    0.3397    2.0001   -0.4867 H   0  0  0  0  0  0
   -0.6149    3.0983   -2.3614 H   0  0  0  0  0  0
   -5.4945    0.6581   -8.0583 H   0  0  0  0  0  0
    4.1413    0.1335    4.8842 H   0  0  0  0  0  0
    2.5255   -0.3322    5.4183 H   0  0  0  0  0  0
   -5.5426    1.3281   -3.7984 H   0  0  0  0  0  0
   -2.2910    2.1262   -6.5055 H   0  0  0  0  0  0
   -4.1853    2.1146   -1.9423 H   0  0  0  0  0  0
   -0.9427    2.9065   -4.6666 H   0  0  0  0  0  0
   -2.5168    0.2789   -7.5244 H   0  0  0  0  0  0
   -3.7779   -0.9536   -7.6440 H   0  0  0  0  0  0
   -5.2807    3.0244   -8.3102 H   0  0  0  0  0  0
   -3.5443    2.9987   -7.9804 H   0  0  0  0  0  0
   -3.8405    3.1147  -10.3728 H   0  0  0  0  0  0
   -4.9750    1.7849  -10.3840 H   0  0  0  0  0  0
   -2.4025   -0.6744   -9.7354 H   0  0  0  0  0  0
   -4.1177   -0.4741  -10.0072 H   0  0  0  0  0  0
    3.9660   -1.4200   -0.5384 H   0  0  0  0  0  0
   -2.2844    0.9477   -0.4521 H   0  0  0  0  0  0
   -2.0470    1.8394    1.0410 H   0  0  0  0  0  0
   -1.4556    3.8950   -0.2541 H   0  0  0  0  0  0
   -3.0341    3.3238   -0.6401 H   0  0  0  0  0  0
    4.0099   -0.7450    7.5214 H   0  0  0  0  0  0
    4.1660   -3.2305    4.0069 H   0  0  0  0  0  0
    4.8044    0.4600   -2.4363 H   0  0  0  0  0  0
    4.7783    0.6894   -0.7005 H   0  0  0  0  0  0
    3.4389    1.2602   -1.6845 H   0  0  0  0  0  0
    3.9835   -1.3114   -3.4638 H   0  0  0  0  0  0
    2.6479   -2.2782   -2.8835 H   0  0  0  0  0  0
    4.2830   -2.6579   -2.3772 H   0  0  0  0  0  0
    4.9815   -2.5829    8.8486 H   0  0  0  0  0  0
    5.1281   -5.0496    5.3448 H   0  0  0  0  0  0
    5.5371   -4.7301    7.7601 H   0  0  0  0  0  0
  1  2  1  0  0  0
  1  5  2  0  0  0
  1  7  1  0  0  0
  2  4  1  0  0  0
  2 36  1  0  0  0
  3  4  1  0  0  0
  3  6  2  0  0  0
  3 10  1  0  0  0
  4  8  1  0  0  0
  4 37  1  0  0  0
  7 16  1  0  0  0
  8 26  1  0  0  0
  8 38  1  0  0  0
  8 39  1  0  0  0
  9 24  1  0  0  0
  9 25  1  0  0  0
 10 27  1  0  0  0
 10 40  1  0  0  0
 11 12  1  0  0  0
 11 15  1  0  0  0
 12 18  2  0  0  0
 12 17  1  0  0  0
 13 14  1  0  0  0
 13 19  1  0  0  0
 13 20  2  0  0  0
 14 28  1  0  0  0
 14 41  1  0  0  0
 15 21  1  0  0  0
 15 22  1  0  0  0
 15 42  1  0  0  0
 16 23  1  0  0  0
 16 43  1  0  0  0
 16 44  1  0  0  0
 17 19  2  0  0  0
 17 45  1  0  0  0
 18 20  1  0  0  0
 18 46  1  0  0  0
 19 47  1  0  0  0
 20 48  1  0  0  0
 21 25  1  0  0  0
 21 49  1  0  0  0
 21 50  1  0  0  0
 22 24  1  0  0  0
 22 51  1  0  0  0
 22 52  1  0  0  0
 23 29  2  0  0  0
 23 30  1  0  0  0
 24 53  1  0  0  0
 24 54  1  0  0  0
 25 55  1  0  0  0
 25 56  1  0  0  0
 26 31  1  0  0  0
 26 32  1  0  0  0
 26 57  1  0  0  0
 27 28  1  0  0  0
 27 58  1  0  0  0
 27 59  1  0  0  0
 28 60  1  0  0  0
 28 61  1  0  0  0
 29 33  1  0  0  0
 29 62  1  0  0  0
 30 34  2  0  0  0
 30 63  1  0  0  0
 31 64  1  0  0  0
 31 65  1  0  0  0
 31 66  1  0  0  0
 32 67  1  0  0  0
 32 68  1  0  0  0
 32 69  1  0  0  0
 33 35  2  0  0  0
 33 70  1  0  0  0
 34 35  1  0  0  0
 34 71  1  0  0  0
 35 72  1  0  0  0
M  END
> <chembl_id>
CHEMBL64634

> <chembl_pref_name>
None

> <i_m_ct_stereo_status>
1

> <s_m_source_file>
sdf/inactives_sanitized.sdf

> <i_m_source_file_index>
35

> <i_lp_mmshare_version>
49012

> <i_f3d_flags>
0

> <s_epik_input>
W2NIXTFbY0hdW2NIXVtjSF1bY0hdYzFbQ0gyXU9DKD1PKVtOSF1bQ0BASF0oW0NIMl1bQ0hdKFtDSDNdKVtDSDNdKUMoPU8pW05IXVtDSDJdW0NIMl1bTkhdYyhbY0hdW2NIXTIpW2NIXVtjSF1jMk9bQ0hdM1tDSDJdW0NIMl1PW0NIMl1bQ0gyXTM=

> <s_epik_cmdline>
J2VwaWtfcHl0aG9uJywgJy1waHQnLCAnMC41JywgJy1waCcsICc3LjUnLCAnLW50JywgJy1tYScsICcyMDAnLCAnLWltYWUnLCAnPGluZmlsZS5tYWU+JywgJy1vbWFlJywgJzxvdXRmaWxlLm1hZT4n

> <r_lp_tautomer_probability>
1

> <r_epik_Ionization_Penalty>
  0.0033

> <r_epik_Ionization_Penalty_Charging>
  0.0000

> <r_epik_Ionization_Penalty_Neutral>
  0.0033

> <r_epik_State_Penalty>
 -0.0000

> <r_epik_Charging_Adjusted_Penalty>
0

> <i_epik_Tot_Q>
0

> <i_epik_Tot_abs_Q>
0

> <s_epik_Chemistry_Notes>
This compound has an ester and may undergo hydrolysis at high or low pH.

> <s_lp_Force_Field>
OPLS3e

> <r_lp_Energy>
34.110377

> <b_lp_Chiralities_Consistent>
1

> <s_lp_Variant>
sdf/inactives_sanitized.sdf:35-1

$$$$
sdf/inactives_sanitized.sdf:36
                    3D
 Schrodinger Suite 2020-1.
 40 40  0  0  1  0            999 V2000
   -0.5609   -0.8567    1.2893 C   0  0  0  0  0  0
   -0.0880   -4.6643    2.1319 N   0  0  0  0  0  0
   -0.1428    0.2318    0.2741 C   0  0  1  0  0  0
   -0.9082   -3.8735    1.9304 C   0  0  0  0  0  0
   -0.6565    1.5285    0.7822 N   0  0  1  0  0  0
   -0.0731   -0.8633    2.4213 O   0  0  0  0  0  0
    1.3953    0.2550    0.0770 C   0  0  0  0  0  0
   -1.4752   -1.7473    0.8687 N   0  0  0  0  0  0
   -2.0489    1.8518    0.4761 C   0  0  0  0  0  0
   -2.6646    2.4226   -3.7449 C   0  0  0  0  0  0
   -2.2725    2.0563   -1.0168 C   0  0  0  0  0  0
   -2.9228    2.6675   -5.6146 Br  0  0  0  0  0  0
   -3.1907    1.2953   -3.1165 C   0  0  0  0  0  0
   -1.9500    3.3719   -3.0166 C   0  0  0  0  0  0
   -2.9981    1.1134   -1.7496 C   0  0  0  0  0  0
   -1.7550    3.1897   -1.6503 C   0  0  0  0  0  0
   -1.9534   -2.8669    1.6732 C   0  0  0  0  0  0
    1.8759    1.1964   -1.0545 C   0  0  0  0  0  0
    1.3368    0.7799   -2.4412 C   0  0  0  0  0  0
    3.4135    1.3386   -1.0449 C   0  0  0  0  0  0
   -0.5897   -0.0295   -0.6863 H   0  0  0  0  0  0
   -0.4403    1.6741    1.7587 H   0  0  0  0  0  0
    1.8711    0.5647    1.0100 H   0  0  0  0  0  0
    1.7614   -0.7502   -0.1417 H   0  0  0  0  0  0
   -1.8127   -1.6920   -0.0814 H   0  0  0  0  0  0
   -2.6872    1.0549    0.8604 H   0  0  0  0  0  0
   -2.3136    2.7696    1.0022 H   0  0  0  0  0  0
   -3.7444    0.5636   -3.6866 H   0  0  0  0  0  0
   -1.5454    4.2443   -3.5083 H   0  0  0  0  0  0
   -3.4029    0.2369   -1.2649 H   0  0  0  0  0  0
   -1.1949    3.9222   -1.0871 H   0  0  0  0  0  0
   -2.7720   -3.3574    1.1467 H   0  0  0  0  0  0
   -2.3504   -2.5186    2.6282 H   0  0  0  0  0  0
    1.4775    2.1896   -0.8417 H   0  0  0  0  0  0
    2.0955    0.8288   -3.2220 H   0  0  0  0  0  0
    0.5238    1.4376   -2.7499 H   0  0  0  0  0  0
    0.9473   -0.2384   -2.4402 H   0  0  0  0  0  0
    3.8662    0.8350   -0.1902 H   0  0  0  0  0  0
    3.7040    2.3882   -0.9880 H   0  0  0  0  0  0
    3.8817    0.9213   -1.9365 H   0  0  0  0  0  0
  1  3  1  0  0  0
  1  6  2  0  0  0
  1  8  1  0  0  0
  2  4  3  0  0  0
  3  5  1  0  0  0
  3  7  1  0  0  0
  3 21  1  0  0  0
  4 17  1  0  0  0
  5  9  1  0  0  0
  5 22  1  0  0  0
  7 18  1  0  0  0
  7 23  1  0  0  0
  7 24  1  0  0  0
  8 17  1  0  0  0
  8 25  1  0  0  0
  9 11  1  0  0  0
  9 26  1  0  0  0
  9 27  1  0  0  0
 10 14  2  0  0  0
 10 12  1  0  0  0
 10 13  1  0  0  0
 11 15  1  0  0  0
 11 16  2  0  0  0
 13 15  2  0  0  0
 13 28  1  0  0  0
 14 16  1  0  0  0
 14 29  1  0  0  0
 15 30  1  0  0  0
 16 31  1  0  0  0
 17 32  1  0  0  0
 17 33  1  0  0  0
 18 19  1  0  0  0
 18 20  1  0  0  0
 18 34  1  0  0  0
 19 35  1  0  0  0
 19 36  1  0  0  0
 19 37  1  0  0  0
 20 38  1  0  0  0
 20 39  1  0  0  0
 20 40  1  0  0  0
M  END
> <chembl_id>
CHEMBL433995

> <chembl_pref_name>
None

> <i_m_ct_stereo_status>
1

> <s_m_source_file>
sdf/inactives_sanitized.sdf

> <i_m_source_file_index>
36

> <i_lp_mmshare_version>
49012

> <i_f3d_flags>
0

> <s_epik_input>
TiNDW0NIMl1bTkhdQyg9TylbQ0BIXShbQ0gyXVtDSF0oW0NIM10pW0NIM10pW05IXVtDSDJdYyhbY0hdW2NIXTEpW2NIXVtjSF1jMUJy

> <s_epik_cmdline>
J2VwaWtfcHl0aG9uJywgJy1waHQnLCAnMC41JywgJy1waCcsICc3LjUnLCAnLW50JywgJy1tYScsICcyMDAnLCAnLWltYWUnLCAnPGluZmlsZS5tYWU+JywgJy1vbWFlJywgJzxvdXRmaWxlLm1hZT4n

> <r_epik_Ionization_Penalty>
  0.0480

> <r_epik_Ionization_Penalty_Charging>
  0.0000

> <r_epik_Ionization_Penalty_Neutral>
  0.0480

> <r_epik_State_Penalty>
  0.0409

> <r_epik_Charging_Adjusted_Penalty>
0.0408721996534683

> <i_epik_Tot_Q>
0

> <i_epik_Tot_abs_Q>
0

> <s_lp_Force_Field>
OPLS3e

> <r_lp_Energy>
25.24212

> <b_lp_Chiralities_Consistent>
1

> <s_lp_Variant>
sdf/inactives_sanitized.sdf:36-1

$$$$
sdf/inactives_sanitized.sdf:37
                    3D
 Schrodinger Suite 2020-1.
 43 43  0  0  1  0            999 V2000
    0.1032    0.3007   -0.1776 N   0  0  1  0  0  0
    1.5740    0.1013   -0.1234 C   0  0  2  0  0  0
    2.1802    0.6677   -1.4292 C   0  0  0  0  0  0
    5.5261    0.7755   -3.4815 N   0  0  0  0  0  0
    4.7285    1.4675   -3.0084 C   0  0  0  0  0  0
   -0.4139    1.6555    0.0389 C   0  0  2  0  0  0
   -0.1330    2.2062    1.4412 C   0  0  0  0  0  0
    1.8877    0.1627   -2.5150 O   0  0  0  0  0  0
    1.9490   -1.3950    0.0441 C   0  0  0  0  0  0
    3.0055    1.7196   -1.2953 N   0  0  0  0  0  0
    0.1933    3.5582    1.5836 C   0  0  0  0  0  0
   -0.1904    1.3848    2.5746 C   0  0  0  0  0  0
    0.4153    3.2569    3.9634 C   0  0  0  0  0  0
    0.4675    4.0837    2.8434 C   0  0  0  0  0  0
    0.0859    1.9096    3.8339 C   0  0  0  0  0  0
    0.7957    3.9747    5.6846 Br  0  0  0  0  0  0
    3.7130    2.3489   -2.4053 C   0  0  0  0  0  0
    1.6107   -1.9922    1.4311 C   0  0  0  0  0  0
   -1.9201    1.6501   -0.2703 C   0  0  0  0  0  0
    2.4203   -1.3343    2.5715 C   0  0  0  0  0  0
    1.7521   -3.5305    1.4241 C   0  0  0  0  0  0
   -0.3495   -0.1731   -0.9468 H   0  0  0  0  0  0
    2.0101    0.6546    0.7102 H   0  0  0  0  0  0
    0.0676    2.3094   -0.6899 H   0  0  0  0  0  0
    1.4273   -1.9760   -0.7192 H   0  0  0  0  0  0
    3.0167   -1.5421   -0.1311 H   0  0  0  0  0  0
    3.2147    2.0628   -0.3690 H   0  0  0  0  0  0
    0.2374    4.2038    0.7185 H   0  0  0  0  0  0
   -0.4491    0.3402    2.4824 H   0  0  0  0  0  0
    0.7208    5.1284    2.9497 H   0  0  0  0  0  0
    0.0446    1.2726    4.7052 H   0  0  0  0  0  0
    4.2176    3.2438   -2.0413 H   0  0  0  0  0  0
    3.0149    2.6673   -3.1814 H   0  0  0  0  0  0
    0.5570   -1.7845    1.6216 H   0  0  0  0  0  0
   -2.3423    2.6511   -0.1746 H   0  0  0  0  0  0
   -2.4697    0.9958    0.4082 H   0  0  0  0  0  0
   -2.1171    1.3161   -1.2900 H   0  0  0  0  0  0
    3.2081   -0.6827    2.1931 H   0  0  0  0  0  0
    2.9016   -2.0611    3.2254 H   0  0  0  0  0  0
    1.7726   -0.7263    3.2028 H   0  0  0  0  0  0
    2.5458   -3.8877    2.0801 H   0  0  0  0  0  0
    1.9737   -3.9181    0.4294 H   0  0  0  0  0  0
    0.8259   -4.0037    1.7516 H   0  0  0  0  0  0
  1  2  1  0  0  0
  1  6  1  0  0  0
  1 22  1  0  0  0
  2  3  1  0  0  0
  2  9  1  0  0  0
  2 23  1  0  0  0
  3  8  2  0  0  0
  3 10  1  0  0  0
  4  5  3  0  0  0
  5 17  1  0  0  0
  6  7  1  0  0  0
  6 19  1  0  0  0
  6 24  1  0  0  0
  7 11  2  0  0  0
  7 12  1  0  0  0
  9 18  1  0  0  0
  9 25  1  0  0  0
  9 26  1  0  0  0
 10 17  1  0  0  0
 10 27  1  0  0  0
 11 14  1  0  0  0
 11 28  1  0  0  0
 12 15  2  0  0  0
 12 29  1  0  0  0
 13 15  1  0  0  0
 13 16  1  0  0  0
 13 14  2  0  0  0
 14 30  1  0  0  0
 15 31  1  0  0  0
 17 32  1  0  0  0
 17 33  1  0  0  0
 18 20  1  0  0  0
 18 21  1  0  0  0
 18 34  1  0  0  0
 19 35  1  0  0  0
 19 36  1  0  0  0
 19 37  1  0  0  0
 20 38  1  0  0  0
 20 39  1  0  0  0
 20 40  1  0  0  0
 21 41  1  0  0  0
 21 42  1  0  0  0
 21 43  1  0  0  0
M  END
> <chembl_id>
CHEMBL195000

> <chembl_pref_name>
None

> <i_m_ct_stereo_status>
1

> <s_m_source_file>
sdf/inactives_sanitized.sdf

> <i_m_source_file_index>
37

> <i_lp_mmshare_version>
49012

> <i_f3d_flags>
0

> <s_epik_input>
TiNDW0NIMl1bTkhdQyg9TylbQ0BIXShbQ0gyXVtDSF0oW0NIM10pW0NIM10pW05IXVtDQEBIXShbQ0gzXSljMVtjSF1bY0hdYyhCcilbY0hdW2NIXTE=

> <s_epik_cmdline>
J2VwaWtfcHl0aG9uJywgJy1waHQnLCAnMC41JywgJy1waCcsICc3LjUnLCAnLW50JywgJy1tYScsICcyMDAnLCAnLWltYWUnLCAnPGluZmlsZS5tYWU+JywgJy1vbWFlJywgJzxvdXRmaWxlLm1hZT4n

> <r_epik_Ionization_Penalty>
  0.0480

> <r_epik_Ionization_Penalty_Charging>
  0.0000

> <r_epik_Ionization_Penalty_Neutral>
  0.0480

> <r_epik_State_Penalty>
  0.0409

> <r_epik_Charging_Adjusted_Penalty>
0.0408721996534683

> <i_epik_Tot_Q>
0

> <i_epik_Tot_abs_Q>
0

> <s_lp_Force_Field>
OPLS3e

> <r_lp_Energy>
18.890225

> <b_lp_Chiralities_Consistent>
1

> <s_lp_Variant>
sdf/inactives_sanitized.sdf:37-1

$$$$
sdf/inactives_sanitized.sdf:38
                    3D
 Schrodinger Suite 2020-1.
 64 65  0  0  1  0            999 V2000
   -2.0340   -1.5592   -0.1194 N   0  0  0  0  0  0
   -0.7902   -1.3561    0.2513 C   0  0  0  0  0  0
   -2.4912   -2.7736    0.1514 C   0  0  0  0  0  0
   -0.0444   -0.1062    0.0611 C   0  0  0  0  0  0
   -0.0670   -2.7327    1.0303 S   0  0  0  0  0  0
    2.1182   -1.3659   -1.9838 C   0  0  0  0  0  0
   -1.5551   -3.5908    0.7941 C   0  0  0  0  0  0
   -3.8653   -3.0996   -0.2412 C   0  0  0  0  0  0
    1.8909   -0.1561   -1.3360 N   0  0  0  0  0  0
    1.4876   -0.0980    0.0798 C   0  0  1  0  0  0
   -0.6623    0.9353   -0.1757 O   0  0  0  0  0  0
    2.3748   -1.1188   -3.2878 O   0  0  0  0  0  0
    2.0874   -2.4886   -1.4748 O   0  0  0  0  0  0
   -4.6324   -2.3132   -0.8052 O   0  0  0  0  0  0
    2.5554   -2.1710   -4.2385 C   0  0  2  0  0  0
   -4.1730   -4.3752    0.0957 O   0  0  0  0  0  0
    3.3652   -1.5795   -5.4161 C   0  0  0  0  0  0
    3.6981   -2.5528   -6.5755 C   0  0  0  0  0  0
    2.0421    1.1712    0.7846 C   0  0  0  0  0  0
   -5.4553   -4.9155   -0.1964 C   0  0  0  0  0  0
    1.1854   -2.7436   -4.6643 C   0  0  0  0  0  0
    4.5031   -3.7934   -6.1155 C   0  0  0  0  0  0
    4.4980   -1.8335   -7.6871 C   0  0  0  0  0  0
    3.5817    1.3042    0.7807 C   0  0  0  0  0  0
    4.3279    0.1566    1.4881 C   0  0  0  0  0  0
   -5.5201   -6.3661    0.2920 C   0  0  0  0  0  0
    5.8429    0.3895    1.5630 C   0  0  0  0  0  0
    4.7533   -2.7616   -8.8920 C   0  0  0  0  0  0
    4.7632   -4.7636   -7.2864 C   0  0  0  0  0  0
    5.4714   -4.0592   -8.4638 C   0  0  0  0  0  0
   -1.6644   -4.6133    1.1251 H   0  0  0  0  0  0
    1.8620    0.6950   -1.8784 H   0  0  0  0  0  0
    1.8890   -0.9503    0.6268 H   0  0  0  0  0  0
    3.1499   -2.9614   -3.7774 H   0  0  0  0  0  0
    2.8194   -0.7253   -5.8209 H   0  0  0  0  0  0
    4.2982   -1.1704   -5.0237 H   0  0  0  0  0  0
    2.7657   -2.9013   -7.0230 H   0  0  0  0  0  0
    1.6464    2.0679    0.3029 H   0  0  0  0  0  0
    1.6883    1.2070    1.8166 H   0  0  0  0  0  0
   -6.2306   -4.3234    0.2924 H   0  0  0  0  0  0
   -5.6398   -4.8768   -1.2713 H   0  0  0  0  0  0
    1.3001   -3.5824   -5.3503 H   0  0  0  0  0  0
    0.5745   -1.9877   -5.1587 H   0  0  0  0  0  0
    0.6228   -3.1139   -3.8067 H   0  0  0  0  0  0
    5.4438   -3.4805   -5.6592 H   0  0  0  0  0  0
    3.9723   -4.3198   -5.3221 H   0  0  0  0  0  0
    3.9567   -0.9456   -8.0169 H   0  0  0  0  0  0
    5.4393   -1.4519   -7.2875 H   0  0  0  0  0  0
    3.9398    1.3957   -0.2458 H   0  0  0  0  0  0
    3.8427    2.2463    1.2655 H   0  0  0  0  0  0
    3.9349    0.0288    2.4977 H   0  0  0  0  0  0
    4.1473   -0.7837    0.9667 H   0  0  0  0  0  0
   -6.4950   -6.8035    0.0763 H   0  0  0  0  0  0
   -5.3593   -6.4275    1.3688 H   0  0  0  0  0  0
   -4.7638   -6.9810   -0.1971 H   0  0  0  0  0  0
    6.3396   -0.4415    2.0647 H   0  0  0  0  0  0
    6.0779    1.2986    2.1174 H   0  0  0  0  0  0
    6.2780    0.4820    0.5673 H   0  0  0  0  0  0
    3.8038   -3.0101   -9.3688 H   0  0  0  0  0  0
    5.3459   -2.2407   -9.6448 H   0  0  0  0  0  0
    5.3628   -5.6080   -6.9447 H   0  0  0  0  0  0
    3.8155   -5.1816   -7.6295 H   0  0  0  0  0  0
    5.5484   -4.7395   -9.3126 H   0  0  0  0  0  0
    6.4959   -3.8211   -8.1734 H   0  0  0  0  0  0
  1  2  2  0  0  0
  1  3  1  0  0  0
  2  4  1  0  0  0
  2  5  1  0  0  0
  3  7  2  0  0  0
  3  8  1  0  0  0
  4 10  1  0  0  0
  4 11  2  0  0  0
  5  7  1  0  0  0
  6  9  1  0  0  0
  6 12  1  0  0  0
  6 13  2  0  0  0
  7 31  1  0  0  0
  8 14  2  0  0  0
  8 16  1  0  0  0
  9 10  1  0  0  0
  9 32  1  0  0  0
 10 19  1  0  0  0
 10 33  1  0  0  0
 12 15  1  0  0  0
 15 17  1  0  0  0
 15 21  1  0  0  0
 15 34  1  0  0  0
 16 20  1  0  0  0
 17 18  1  0  0  0
 17 35  1  0  0  0
 17 36  1  0  0  0
 18 22  1  0  0  0
 18 23  1  0  0  0
 18 37  1  0  0  0
 19 24  1  0  0  0
 19 38  1  0  0  0
 19 39  1  0  0  0
 20 26  1  0  0  0
 20 40  1  0  0  0
 20 41  1  0  0  0
 21 42  1  0  0  0
 21 43  1  0  0  0
 21 44  1  0  0  0
 22 29  1  0  0  0
 22 45  1  0  0  0
 22 46  1  0  0  0
 23 28  1  0  0  0
 23 47  1  0  0  0
 23 48  1  0  0  0
 24 25  1  0  0  0
 24 49  1  0  0  0
 24 50  1  0  0  0
 25 27  1  0  0  0
 25 51  1  0  0  0
 25 52  1  0  0  0
 26 53  1  0  0  0
 26 54  1  0  0  0
 26 55  1  0  0  0
 27 56  1  0  0  0
 27 57  1  0  0  0
 27 58  1  0  0  0
 28 30  1  0  0  0
 28 59  1  0  0  0
 28 60  1  0  0  0
 29 30  1  0  0  0
 29 61  1  0  0  0
 29 62  1  0  0  0
 30 63  1  0  0  0
 30 64  1  0  0  0
M  END
> <chembl_id>
CHEMBL361816

> <chembl_pref_name>
None

> <i_m_ct_stereo_status>
1

> <s_m_source_file>
sdf/inactives_sanitized.sdf

> <i_m_source_file_index>
38

> <i_lp_mmshare_version>
49012

> <i_f3d_flags>
0

> <s_epik_input>
W0NIM11bQ0gyXU9DKD1PKWMoW2NIXXMxKW5jMUMoPU8pW0NASF0oW0NIMl1bQ0gyXVtDSDJdW0NIM10pW05IXUMoPU8pT1tDQEBIXShbQ0gzXSlbQ0gyXVtDSF0yW0NIMl1bQ0gyXVtDSDJdW0NIMl1bQ0gyXTI=

> <s_epik_cmdline>
J2VwaWtfcHl0aG9uJywgJy1waHQnLCAnMC41JywgJy1waCcsICc3LjUnLCAnLW50JywgJy1tYScsICcyMDAnLCAnLWltYWUnLCAnPGluZmlsZS5tYWU+JywgJy1vbWFlJywgJzxvdXRmaWxlLm1hZT4n

> <r_lp_tautomer_probability>
1

> <r_epik_Ionization_Penalty>
  0.0000

> <r_epik_Ionization_Penalty_Charging>
  0.0000

> <r_epik_Ionization_Penalty_Neutral>
  0.0000

> <r_epik_State_Penalty>
 -0.0000

> <r_epik_Charging_Adjusted_Penalty>
0

> <i_epik_Tot_Q>
0

> <i_epik_Tot_abs_Q>
0

> <s_epik_Chemistry_Notes>
This compound has an ester and may undergo hydrolysis at high or low pH.

> <s_lp_Force_Field>
OPLS3e

> <r_lp_Energy>
33.819835

> <b_lp_Chiralities_Consistent>
1

> <s_lp_Variant>
sdf/inactives_sanitized.sdf:38-1

$$$$
sdf/inactives_sanitized.sdf:39
                    3D
 Schrodinger Suite 2020-1.
 78 79  0  0  1  0            999 V2000
    3.9119   -6.2168   -6.8520 C   0  0  0  0  0  0
    4.2503   -5.7323   -8.1151 C   0  0  0  0  0  0
    4.0026   -4.3996   -8.4425 C   0  0  0  0  0  0
    3.4146   -3.5547   -7.5055 C   0  0  0  0  0  0
    3.0652   -4.0246   -6.2317 C   0  0  0  0  0  0
    3.3225   -5.3672   -5.9200 C   0  0  0  0  0  0
    2.4342   -3.1145   -5.2273 C   0  0  0  0  0  0
    2.7951   -1.7623   -5.1580 C   0  0  0  0  0  0
    2.2108   -0.9143   -4.2216 C   0  0  0  0  0  0
    1.2499   -1.3997   -3.3322 C   0  0  0  0  0  0
    0.8807   -2.7486   -3.3955 C   0  0  0  0  0  0
    1.4681   -3.5934   -4.3326 C   0  0  0  0  0  0
    5.0157   -6.8198   -9.3151 S   0  0  0  0  0  0
    6.8586   -6.5903   -8.9879 C   0  0  0  0  0  0
    4.6481   -8.1960   -8.9631 O   0  0  0  0  0  0
    4.7097   -6.2909  -10.6491 O   0  0  0  0  0  0
    0.6366   -0.4368   -2.3063 C   0  0  2  0  0  0
    0.4574   -1.1109   -1.0119 N   0  0  2  0  0  0
   -0.7026    0.1545   -2.8332 C   0  0  0  0  0  0
   -1.2139    1.0767   -2.0177 F   0  0  0  0  0  0
   -0.5300    0.7516   -4.0133 F   0  0  0  0  0  0
   -1.6356   -0.7854   -2.9993 F   0  0  0  0  0  0
    0.4963   -0.2510    0.1965 C   0  0  2  0  0  0
    1.9867    0.0163    0.5157 C   0  0  0  0  0  0
   -0.2526   -0.9276    1.3760 C   0  0  0  0  0  0
   -0.2469   -0.1601    2.7227 C   0  0  0  0  0  0
   -0.9508   -0.9762    3.8275 C   0  0  0  0  0  0
   -0.8258    1.2650    2.5950 C   0  0  0  0  0  0
    2.7387   -0.9260    0.7748 O   0  0  0  0  0  0
    2.3749    1.3014    0.4772 N   0  0  0  0  0  0
    3.7412    1.7709    0.7115 C   0  0  1  0  0  0
    4.5258    1.7252   -0.6331 C   0  0  0  0  0  0
    6.0391    1.9905   -0.5199 C   0  0  0  0  0  0
    6.9612    0.7618    0.4458 S   0  0  0  0  0  0
    8.6301    1.4501    0.2972 C   0  0  0  0  0  0
    3.6784    3.1583    1.4047 C   0  0  0  0  0  0
    3.2872    3.2422    2.7057 N   0  0  0  0  0  0
    3.9747    4.1506    0.7341 O   0  0  0  0  0  0
    3.1974    4.5278    3.4033 C   0  0  0  0  0  0
    2.9575    2.1068    3.5721 C   0  0  0  0  0  0
    4.1057   -7.2460   -6.5870 H   0  0  0  0  0  0
    4.2627   -4.0151   -9.4179 H   0  0  0  0  0  0
    3.2222   -2.5289   -7.7842 H   0  0  0  0  0  0
    3.0772   -5.7610   -4.9445 H   0  0  0  0  0  0
    3.5438   -1.3587   -5.8239 H   0  0  0  0  0  0
    2.5117    0.1231   -4.1874 H   0  0  0  0  0  0
    0.1329   -3.1462   -2.7246 H   0  0  0  0  0  0
    1.1548   -4.6268   -4.3636 H   0  0  0  0  0  0
    7.4189   -7.2230   -9.6756 H   0  0  0  0  0  0
    7.0743   -6.8771   -7.9590 H   0  0  0  0  0  0
    7.1204   -5.5446   -9.1472 H   0  0  0  0  0  0
    1.3506    0.3770   -2.1681 H   0  0  0  0  0  0
    1.1607   -1.8304   -0.9143 H   0  0  0  0  0  0
    0.0022    0.7004   -0.0002 H   0  0  0  0  0  0
   -1.2916   -1.0802    1.0787 H   0  0  0  0  0  0
    0.1472   -1.9322    1.5288 H   0  0  0  0  0  0
    0.7908   -0.0589    3.0418 H   0  0  0  0  0  0
   -1.8744   -0.5094    4.1706 H   0  0  0  0  0  0
   -0.3023   -1.0903    4.6966 H   0  0  0  0  0  0
   -1.2134   -1.9795    3.4907 H   0  0  0  0  0  0
   -1.4557    1.3713    1.7116 H   0  0  0  0  0  0
   -0.0244    2.0000    2.5143 H   0  0  0  0  0  0
   -1.4308    1.5501    3.4553 H   0  0  0  0  0  0
    1.6965    2.0178    0.2621 H   0  0  0  0  0  0
    4.2497    1.0816    1.3867 H   0  0  0  0  0  0
    4.3922    0.7507   -1.1064 H   0  0  0  0  0  0
    4.1023    2.4462   -1.3349 H   0  0  0  0  0  0
    6.4696    2.0153   -1.5213 H   0  0  0  0  0  0
    6.2227    2.9744   -0.0883 H   0  0  0  0  0  0
    9.3437    0.8253    0.8345 H   0  0  0  0  0  0
    8.6668    2.4559    0.7162 H   0  0  0  0  0  0
    8.9310    1.4966   -0.7496 H   0  0  0  0  0  0
    3.4302    5.3834    2.7677 H   0  0  0  0  0  0
    3.8886    4.5455    4.2466 H   0  0  0  0  0  0
    2.1892    4.6732    3.7929 H   0  0  0  0  0  0
    2.9820    1.1384    3.0771 H   0  0  0  0  0  0
    1.9551    2.2319    3.9828 H   0  0  0  0  0  0
    3.6554    2.0632    4.4087 H   0  0  0  0  0  0
  1  6  2  0  0  0
  1  2  1  0  0  0
  1 41  1  0  0  0
  2  3  2  0  0  0
  2 13  1  0  0  0
  3  4  1  0  0  0
  3 42  1  0  0  0
  4  5  2  0  0  0
  4 43  1  0  0  0
  5  6  1  0  0  0
  5  7  1  0  0  0
  6 44  1  0  0  0
  7 12  1  0  0  0
  7  8  2  0  0  0
  8  9  1  0  0  0
  8 45  1  0  0  0
  9 10  2  0  0  0
  9 46  1  0  0  0
 10 11  1  0  0  0
 10 17  1  0  0  0
 11 12  2  0  0  0
 11 47  1  0  0  0
 12 48  1  0  0  0
 13 14  1  0  0  0
 13 15  2  0  0  0
 13 16  2  0  0  0
 14 49  1  0  0  0
 14 50  1  0  0  0
 14 51  1  0  0  0
 17 18  1  0  0  0
 17 19  1  0  0  0
 17 52  1  0  0  0
 18 23  1  0  0  0
 18 53  1  0  0  0
 19 20  1  0  0  0
 19 21  1  0  0  0
 19 22  1  0  0  0
 23 24  1  0  0  0
 23 25  1  0  0  0
 23 54  1  0  0  0
 24 29  2  0  0  0
 24 30  1  0  0  0
 25 26  1  0  0  0
 25 55  1  0  0  0
 25 56  1  0  0  0
 26 27  1  0  0  0
 26 28  1  0  0  0
 26 57  1  0  0  0
 27 58  1  0  0  0
 27 59  1  0  0  0
 27 60  1  0  0  0
 28 61  1  0  0  0
 28 62  1  0  0  0
 28 63  1  0  0  0
 30 31  1  0  0  0
 30 64  1  0  0  0
 31 32  1  0  0  0
 31 36  1  0  0  0
 31 65  1  0  0  0
 32 33  1  0  0  0
 32 66  1  0  0  0
 32 67  1  0  0  0
 33 34  1  0  0  0
 33 68  1  0  0  0
 33 69  1  0  0  0
 34 35  1  0  0  0
 35 70  1  0  0  0
 35 71  1  0  0  0
 35 72  1  0  0  0
 36 37  1  0  0  0
 36 38  2  0  0  0
 37 39  1  0  0  0
 37 40  1  0  0  0
 39 73  1  0  0  0
 39 74  1  0  0  0
 39 75  1  0  0  0
 40 76  1  0  0  0
 40 77  1  0  0  0
 40 78  1  0  0  0
M  END
> <chembl_id>
CHEMBL402267

> <chembl_pref_name>
None

> <i_m_ct_stereo_status>
1

> <s_m_source_file>
sdf/inactives_sanitized.sdf

> <i_m_source_file_index>
39

> <i_lp_mmshare_version>
49012

> <i_f3d_flags>
0

> <s_epik_input>
W0NIM11TKD1PKSg9TyljMVtjSF1bY0hdYyhbY0hdW2NIXTEpLWMyW2NIXVtjSF1jKFtjSF1bY0hdMilbQ0BASF0oQyhGKShGKUYpW05IXVtDQEBIXShbQ0gyXVtDSF0oW0NIM10pW0NIM10pQyg9TylbTkhdW0NASF0oQyg9TylOKFtDSDNdKVtDSDNdKVtDSDJdW0NIMl1TW0NIM10=

> <s_epik_cmdline>
J2VwaWtfcHl0aG9uJywgJy1waHQnLCAnMC41JywgJy1waCcsICc3LjUnLCAnLW50JywgJy1tYScsICcyMDAnLCAnLWltYWUnLCAnPGluZmlsZS5tYWU+JywgJy1vbWFlJywgJzxvdXRmaWxlLm1hZT4n

> <r_lp_tautomer_probability>
1

> <r_epik_Ionization_Penalty>
  0.0004

> <r_epik_Ionization_Penalty_Charging>
  0.0000

> <r_epik_Ionization_Penalty_Neutral>
  0.0004

> <r_epik_State_Penalty>
 -0.0000

> <r_epik_Charging_Adjusted_Penalty>
0

> <i_epik_Tot_Q>
0

> <i_epik_Tot_abs_Q>
0

> <s_lp_Force_Field>
OPLS3e

> <r_lp_Energy>
43.348178

> <b_lp_Chiralities_Consistent>
1

> <s_lp_Variant>
sdf/inactives_sanitized.sdf:39-1

$$$$
sdf/inactives_sanitized.sdf:40
                    3D
 Schrodinger Suite 2020-1.
 75 76  0  0  1  0            999 V2000
   -0.7420    1.2059    0.1603 C   0  0  0  0  0  0
    0.0007    0.0824    0.5196 N   0  0  0  0  0  0
    1.4448   -0.0329    0.2212 C   0  0  2  0  0  0
    1.6680   -0.1021   -1.2987 C   0  0  0  0  0  0
    3.0392    0.5017   -1.8114 C   0  0  0  0  0  0
    0.8604   -0.5922   -2.0953 O   0  0  0  0  0  0
    3.7204    1.2479   -1.1061 O   0  0  0  0  0  0
    3.3546    0.0820   -3.0523 N   0  0  0  0  0  0
   -0.3400    2.1768   -0.4853 O   0  0  0  0  0  0
    2.0210   -1.2923    0.9271 C   0  0  0  0  0  0
    3.5536   -1.4736    0.8538 C   0  0  0  0  0  0
    4.0693   -2.6071    1.7568 C   0  0  0  0  0  0
    5.5840   -2.8208    1.6355 C   0  0  0  0  0  0
   -1.9914    1.0744    0.6611 O   0  0  0  0  0  0
    4.5813    0.4323   -3.7783 C   0  0  2  0  0  0
   -3.0070    2.0692    0.4695 C   0  0  1  0  0  0
    4.5296   -0.1185   -5.2130 C   0  0  0  0  0  0
    5.8787    0.0071   -3.0769 C   0  0  0  0  0  0
    5.9863   -1.2523   -2.4728 C   0  0  0  0  0  0
    7.1588   -1.6154   -1.8163 C   0  0  0  0  0  0
    8.2231   -0.7191   -1.7596 C   0  0  0  0  0  0
    8.1267    0.5357   -2.3567 C   0  0  0  0  0  0
    6.9545    0.8987   -3.0148 C   0  0  0  0  0  0
   -4.2530    1.3405   -0.0999 C   0  0  0  0  0  0
   -4.0057    0.6596   -1.4620 C   0  0  0  0  0  0
   -5.2525   -0.0159   -2.0141 C   0  0  0  0  0  0
   -5.5692   -1.3195   -1.6220 C   0  0  0  0  0  0
   -6.7129   -1.9371   -2.1217 C   0  0  0  0  0  0
   -7.5356   -1.2495   -3.0116 C   0  0  0  0  0  0
   -7.2256    0.0502   -3.4064 C   0  0  0  0  0  0
   -6.0823    0.6688   -2.9064 C   0  0  0  0  0  0
   -3.2454    2.8890    1.7882 C   0  0  0  0  0  0
   -3.7110    1.9774    2.9506 C   0  0  0  0  0  0
   -4.3122    3.9880    1.5571 C   0  0  0  0  0  0
   -1.9371    3.6008    2.2152 C   0  0  0  0  0  0
   -0.3511   -0.4704    1.2874 H   0  0  0  0  0  0
    1.9189    0.8399    0.6762 H   0  0  0  0  0  0
    2.6966   -0.5071   -3.5418 H   0  0  0  0  0  0
    1.7359   -1.2472    1.9800 H   0  0  0  0  0  0
    1.5322   -2.1888    0.5397 H   0  0  0  0  0  0
    3.8489   -1.6880   -0.1736 H   0  0  0  0  0  0
    4.0465   -0.5408    1.1328 H   0  0  0  0  0  0
    3.8207   -2.3898    2.7965 H   0  0  0  0  0  0
    3.5577   -3.5376    1.5071 H   0  0  0  0  0  0
    5.9201   -3.6151    2.3021 H   0  0  0  0  0  0
    6.1348   -1.9155    1.8933 H   0  0  0  0  0  0
    5.8613   -3.1037    0.6199 H   0  0  0  0  0  0
    4.5791    1.5217   -3.8637 H   0  0  0  0  0  0
   -2.6974    2.7805   -0.2993 H   0  0  0  0  0  0
    5.3860    0.2213   -5.7967 H   0  0  0  0  0  0
    3.6309    0.2146   -5.7339 H   0  0  0  0  0  0
    4.5320   -1.2093   -5.2236 H   0  0  0  0  0  0
    5.1620   -1.9497   -2.5101 H   0  0  0  0  0  0
    7.2424   -2.5869   -1.3518 H   0  0  0  0  0  0
    9.1313   -0.9995   -1.2468 H   0  0  0  0  0  0
    8.9564    1.2252   -2.3068 H   0  0  0  0  0  0
    6.8833    1.8754   -3.4714 H   0  0  0  0  0  0
   -4.6040    0.5927    0.6122 H   0  0  0  0  0  0
   -5.0691    2.0506   -0.2275 H   0  0  0  0  0  0
   -3.6388    1.3895   -2.1856 H   0  0  0  0  0  0
   -3.2135   -0.0865   -1.3811 H   0  0  0  0  0  0
   -4.9325   -1.8520   -0.9304 H   0  0  0  0  0  0
   -6.9611   -2.9440   -1.8202 H   0  0  0  0  0  0
   -8.4226   -1.7288   -3.3991 H   0  0  0  0  0  0
   -7.8688    0.5757   -4.0968 H   0  0  0  0  0  0
   -5.8442    1.6774   -3.2118 H   0  0  0  0  0  0
   -3.8292    2.5415    3.8770 H   0  0  0  0  0  0
   -2.9951    1.1791    3.1501 H   0  0  0  0  0  0
   -4.6729    1.5087    2.7417 H   0  0  0  0  0  0
   -5.3056    3.5715    1.3898 H   0  0  0  0  0  0
   -4.0666    4.6095    0.6947 H   0  0  0  0  0  0
   -4.3981    4.6513    2.4191 H   0  0  0  0  0  0
   -2.0927    4.2504    3.0781 H   0  0  0  0  0  0
   -1.5381    4.2209    1.4112 H   0  0  0  0  0  0
   -1.1589    2.8900    2.4955 H   0  0  0  0  0  0
  1  2  1  0  0  0
  1 14  1  0  0  0
  1  9  2  0  0  0
  2  3  1  0  0  0
  2 36  1  0  0  0
  3 10  1  0  0  0
  3  4  1  0  0  0
  3 37  1  0  0  0
  4  5  1  0  0  0
  4  6  2  0  0  0
  5  7  2  0  0  0
  5  8  1  0  0  0
  8 15  1  0  0  0
  8 38  1  0  0  0
 10 11  1  0  0  0
 10 39  1  0  0  0
 10 40  1  0  0  0
 11 12  1  0  0  0
 11 41  1  0  0  0
 11 42  1  0  0  0
 12 13  1  0  0  0
 12 43  1  0  0  0
 12 44  1  0  0  0
 13 45  1  0  0  0
 13 46  1  0  0  0
 13 47  1  0  0  0
 14 16  1  0  0  0
 15 18  1  0  0  0
 15 17  1  0  0  0
 15 48  1  0  0  0
 16 24  1  0  0  0
 16 32  1  0  0  0
 16 49  1  0  0  0
 17 50  1  0  0  0
 17 51  1  0  0  0
 17 52  1  0  0  0
 18 19  2  0  0  0
 18 23  1  0  0  0
 19 20  1  0  0  0
 19 53  1  0  0  0
 20 21  2  0  0  0
 20 54  1  0  0  0
 21 22  1  0  0  0
 21 55  1  0  0  0
 22 23  2  0  0  0
 22 56  1  0  0  0
 23 57  1  0  0  0
 24 25  1  0  0  0
 24 58  1  0  0  0
 24 59  1  0  0  0
 25 26  1  0  0  0
 25 60  1  0  0  0
 25 61  1  0  0  0
 26 27  2  0  0  0
 26 31  1  0  0  0
 27 28  1  0  0  0
 27 62  1  0  0  0
 28 29  2  0  0  0
 28 63  1  0  0  0
 29 30  1  0  0  0
 29 64  1  0  0  0
 30 31  2  0  0  0
 30 65  1  0  0  0
 31 66  1  0  0  0
 32 33  1  0  0  0
 32 34  1  0  0  0
 32 35  1  0  0  0
 33 67  1  0  0  0
 33 68  1  0  0  0
 33 69  1  0  0  0
 34 70  1  0  0  0
 34 71  1  0  0  0
 34 72  1  0  0  0
 35 73  1  0  0  0
 35 74  1  0  0  0
 35 75  1  0  0  0
M  END
> <chembl_id>
CHEMBL266851

> <chembl_pref_name>
None

> <i_m_ct_stereo_status>
1

> <s_m_source_file>
sdf/inactives_sanitized.sdf

> <i_m_source_file_index>
40

> <i_lp_mmshare_version>
49012

> <i_f3d_flags>
0

> <s_epik_input>
W2NIXTFbY0hdW2NIXVtjSF1bY0hdYzFbQ0gyXVtDSDJdW0NAQEhdKEMoW0NIM10pKFtDSDNdKVtDSDNdKU9DKD1PKVtOSF1bQ0BASF0oW0NIMl1bQ0gyXVtDSDJdW0NIM10pQyg9TylDKD1PKVtOSF1bQ0BIXShbQ0gzXSljMltjSF1bY0hdW2NIXVtjSF1bY0hdMg==

> <s_epik_cmdline>
J2VwaWtfcHl0aG9uJywgJy1waHQnLCAnMC41JywgJy1waCcsICc3LjUnLCAnLW50JywgJy1tYScsICcyMDAnLCAnLWltYWUnLCAnPGluZmlsZS5tYWU+JywgJy1vbWFlJywgJzxvdXRmaWxlLm1hZT4n

> <r_lp_tautomer_probability>
1

> <r_epik_Ionization_Penalty>
  0.0000

> <r_epik_Ionization_Penalty_Charging>
  0.0000

> <r_epik_Ionization_Penalty_Neutral>
  0.0000

> <r_epik_State_Penalty>
 -0.0000

> <r_epik_Charging_Adjusted_Penalty>
0

> <i_epik_Tot_Q>
0

> <i_epik_Tot_abs_Q>
0

> <s_epik_Chemistry_Notes>
This compound has an ester and may undergo hydrolysis at high or low pH.

> <s_lp_Force_Field>
OPLS3e

> <r_lp_Energy>
40.021627

> <b_lp_Chiralities_Consistent>
1

> <s_lp_Variant>
sdf/inactives_sanitized.sdf:40-1

$$$$
sdf/inactives_sanitized.sdf:41
                    3D
 Schrodinger Suite 2020-1.
 66 66  0  0  1  0            999 V2000
    3.8364    0.4592    4.3865 O   0  0  0  0  0  0
    4.6996    1.3477    3.6015 S   0  0  0  0  0  0
    5.0575    0.9910    2.2239 O   0  0  0  0  0  0
   -1.0676   -1.0540   -2.8446 C   0  0  1  0  0  0
   -2.2758    0.5521   -1.5153 O   0  0  0  0  0  0
   -0.8689   -0.1502   -4.0456 C   0  0  0  0  0  0
   -1.3092   -0.2130   -1.5722 C   0  0  0  0  0  0
   -0.4089   -0.3624   -0.5838 N   0  0  0  0  0  0
   -0.3886    0.3923    0.6761 C   0  0  2  0  0  0
    0.9205    2.1337   -0.3515 O   0  0  0  0  0  0
   -0.0195    1.8693    0.4006 C   0  0  0  0  0  0
    0.5006   -0.3021    1.7786 C   0  0  0  0  0  0
   -0.0177   -1.7386    2.0474 C   0  0  0  0  0  0
   -0.7545    2.7930    1.0445 N   0  0  0  0  0  0
   -0.4497    4.2222    1.0398 C   0  0  0  0  0  0
    0.5048    4.1580    3.2385 O   0  0  0  0  0  0
    0.6734    4.4528    2.0546 C   0  0  0  0  0  0
    1.8210    4.9621    1.5783 N   0  0  0  0  0  0
    0.3360    0.5527   -4.1883 C   0  0  0  0  0  0
    0.5450    1.3954   -5.2803 C   0  0  0  0  0  0
   -0.4501    1.5440   -6.2458 C   0  0  0  0  0  0
   -1.6542    0.8525   -6.1167 C   0  0  0  0  0  0
   -1.8628    0.0116   -5.0227 C   0  0  0  0  0  0
   -2.8878    1.0377   -7.3095 Cl  0  0  0  0  0  0
    3.0597    5.0061    2.3496 C   0  0  0  0  0  0
    3.7189    3.6396    2.4549 C   0  0  0  0  0  0
    2.0341    2.2541   -5.4348 Cl  0  0  0  0  0  0
    0.4608    0.4680    3.1246 C   0  0  0  0  0  0
    1.9839   -0.4163    1.3327 C   0  0  0  0  0  0
    3.9395    2.9789    3.6055 C   0  0  0  0  0  0
    6.2953    1.6199    4.5688 C   0  0  0  0  0  0
   -2.1691   -2.0460   -2.8611 N   0  0  2  0  0  0
   -1.8863   -3.2018   -3.7020 C   0  0  0  0  0  0
   -3.0543   -4.1916   -3.6243 C   0  0  0  0  0  0
   -0.1337   -1.6057   -2.7027 H   0  0  0  0  0  0
    0.3532   -1.0119   -0.7113 H   0  0  0  0  0  0
   -1.4162    0.3894    1.0478 H   0  0  0  0  0  0
    0.5496   -2.2284    2.8408 H   0  0  0  0  0  0
    0.0650   -2.3771    1.1669 H   0  0  0  0  0  0
   -1.0632   -1.7351    2.3582 H   0  0  0  0  0  0
   -1.5129    2.4924    1.6394 H   0  0  0  0  0  0
   -0.1694    4.5654    0.0420 H   0  0  0  0  0  0
   -1.3348    4.7814    1.3428 H   0  0  0  0  0  0
    1.8892    5.1765    0.5937 H   0  0  0  0  0  0
    1.1125    0.4470   -3.4440 H   0  0  0  0  0  0
   -0.2888    2.1960   -7.0922 H   0  0  0  0  0  0
   -2.8045   -0.5104   -4.9366 H   0  0  0  0  0  0
    3.7459    5.6504    1.7994 H   0  0  0  0  0  0
    2.9020    5.4820    3.3207 H   0  0  0  0  0  0
    4.0056    3.1920    1.5142 H   0  0  0  0  0  0
   -0.5607    0.6014    3.4823 H   0  0  0  0  0  0
    0.9226    1.4523    3.0469 H   0  0  0  0  0  0
    1.0080   -0.0623    3.9054 H   0  0  0  0  0  0
    2.5885   -0.9153    2.0914 H   0  0  0  0  0  0
    2.4402    0.5604    1.1708 H   0  0  0  0  0  0
    2.0926   -0.9928    0.4135 H   0  0  0  0  0  0
    3.6672    3.3782    4.5710 H   0  0  0  0  0  0
    6.8358    0.6755    4.6255 H   0  0  0  0  0  0
    6.0494    1.9671    5.5721 H   0  0  0  0  0  0
    6.9019    2.3641    4.0533 H   0  0  0  0  0  0
   -3.0166   -1.6042   -3.1893 H   0  0  0  0  0  0
   -1.7452   -2.8844   -4.7360 H   0  0  0  0  0  0
   -0.9669   -3.6886   -3.3736 H   0  0  0  0  0  0
   -2.8627   -5.0631   -4.2503 H   0  0  0  0  0  0
   -3.9858   -3.7389   -3.9666 H   0  0  0  0  0  0
   -3.2092   -4.5465   -2.6044 H   0  0  0  0  0  0
  1  2  2  0  0  0
  2  3  2  0  0  0
  2 30  1  0  0  0
  2 31  1  0  0  0
  4  7  1  0  0  0
  4  6  1  0  0  0
  4 32  1  0  0  0
  4 35  1  0  0  0
  5  7  2  0  0  0
  6 19  2  0  0  0
  6 23  1  0  0  0
  7  8  1  0  0  0
  8  9  1  0  0  0
  8 36  1  0  0  0
  9 11  1  0  0  0
  9 12  1  0  0  0
  9 37  1  0  0  0
 10 11  2  0  0  0
 11 14  1  0  0  0
 12 13  1  0  0  0
 12 28  1  0  0  0
 12 29  1  0  0  0
 13 38  1  0  0  0
 13 39  1  0  0  0
 13 40  1  0  0  0
 14 15  1  0  0  0
 14 41  1  0  0  0
 15 17  1  0  0  0
 15 42  1  0  0  0
 15 43  1  0  0  0
 16 17  2  0  0  0
 17 18  1  0  0  0
 18 25  1  0  0  0
 18 44  1  0  0  0
 19 20  1  0  0  0
 19 45  1  0  0  0
 20 21  2  0  0  0
 20 27  1  0  0  0
 21 22  1  0  0  0
 21 46  1  0  0  0
 22 23  2  0  0  0
 22 24  1  0  0  0
 23 47  1  0  0  0
 25 26  1  0  0  0
 25 48  1  0  0  0
 25 49  1  0  0  0
 26 30  2  0  0  0
 26 50  1  0  0  0
 28 51  1  0  0  0
 28 52  1  0  0  0
 28 53  1  0  0  0
 29 54  1  0  0  0
 29 55  1  0  0  0
 29 56  1  0  0  0
 30 57  1  0  0  0
 31 58  1  0  0  0
 31 59  1  0  0  0
 31 60  1  0  0  0
 32 33  1  0  0  0
 32 61  1  0  0  0
 33 34  1  0  0  0
 33 62  1  0  0  0
 33 63  1  0  0  0
 34 64  1  0  0  0
 34 65  1  0  0  0
 34 66  1  0  0  0
M  END
> <chembl_id>
CHEMBL3354498

> <chembl_pref_name>
None

> <i_m_ct_stereo_status>
1

> <s_m_source_file>
sdf/inactives_sanitized.sdf

> <i_m_source_file_index>
41

> <i_lp_mmshare_version>
49012

> <i_f3d_flags>
0

> <s_epik_input>
Tz1TKD1PKShbQ0gzXSlcW0NIXT1bQ0hdXFtDSDJdW05IXUMoPU8pW0NIMl1bTkhdQyg9TylbQ0BIXShDKFtDSDNdKShbQ0gzXSlbQ0gzXSlbTkhdQyg9TylbQ0BASF0oW05IXVtDSDJdW0NIM10pYzFbY0hdYyhDbClbY0hdYyhDbClbY0hdMQ==

> <s_epik_cmdline>
J2VwaWtfcHl0aG9uJywgJy1waHQnLCAnMC41JywgJy1waCcsICc3LjUnLCAnLW50JywgJy1tYScsICcyMDAnLCAnLWltYWUnLCAnPGluZmlsZS5tYWU+JywgJy1vbWFlJywgJzxvdXRmaWxlLm1hZT4n

> <r_epik_Ionization_Penalty>
  0.2023

> <r_epik_Ionization_Penalty_Charging>
  0.0000

> <r_epik_Ionization_Penalty_Neutral>
  0.2023

> <r_epik_State_Penalty>
  0.1922

> <r_epik_Charging_Adjusted_Penalty>
0.192228117389064

> <i_epik_Tot_Q>
0

> <i_epik_Tot_abs_Q>
0

> <s_lp_Force_Field>
OPLS3e

> <r_lp_Energy>
5.194158

> <b_lp_Chiralities_Consistent>
1

> <s_lp_Variant>
sdf/inactives_sanitized.sdf:41-1

$$$$
sdf/inactives_sanitized.sdf:42
                    3D
 Schrodinger Suite 2020-1.
 66 67  0  0  1  0            999 V2000
   -0.7705    1.0221   -0.2527 C   0  0  0  0  0  0
   -0.0877   -0.1905   -0.1813 N   0  0  0  0  0  0
    1.3894   -0.2577   -0.1527 C   0  0  2  0  0  0
    1.9606    0.2118   -1.5014 C   0  0  0  0  0  0
    3.4069    0.8551   -1.4445 C   0  0  0  0  0  0
    1.3632    0.1087   -2.5787 O   0  0  0  0  0  0
    3.9217    1.1993   -0.3793 O   0  0  0  0  0  0
    3.9783    0.9408   -2.6613 N   0  0  0  0  0  0
   -2.1032    0.7708   -0.1545 O   0  0  0  0  0  0
   -0.2641    2.1416   -0.3510 O   0  0  0  0  0  0
    1.8345   -1.7123    0.1680 C   0  0  0  0  0  0
    3.3346   -1.9111    0.4779 C   0  0  0  0  0  0
    3.6612   -3.3262    0.9850 C   0  0  0  0  0  0
    5.1544   -3.5233    1.2797 C   0  0  0  0  0  0
    5.3476    1.3991   -2.9227 C   0  0  1  0  0  0
    6.4441    0.5005   -2.3331 C   0  0  0  0  0  0
    5.5593    1.6015   -4.4324 C   0  0  0  0  0  0
    7.6019    1.0851   -1.8089 C   0  0  0  0  0  0
    8.5962    0.2883   -1.2469 C   0  0  0  0  0  0
    8.4317   -1.0942   -1.2049 C   0  0  0  0  0  0
    7.2830   -1.6877   -1.7219 C   0  0  0  0  0  0
    6.2892   -0.8915   -2.2839 C   0  0  0  0  0  0
   -3.1412    1.7704   -0.1319 C   0  0  0  0  0  0
   -3.0412    2.7047    1.1165 C   0  0  0  0  0  0
   -2.9330    1.9981    2.4675 C   0  0  0  0  0  0
   -4.0916    1.6446    3.1655 C   0  0  0  0  0  0
   -3.9954    1.0003    4.3962 C   0  0  0  0  0  0
   -2.7403    0.7160    4.9299 C   0  0  0  0  0  0
   -1.5807    1.0742    4.2461 C   0  0  0  0  0  0
   -1.6772    1.7194    3.0161 C   0  0  0  0  0  0
   -3.1343    2.6140   -1.4340 C   0  0  0  0  0  0
   -4.4492    0.9479   -0.1009 C   0  0  0  0  0  0
   -0.5874   -0.9727    0.2154 H   0  0  0  0  0  0
    1.7090    0.3735    0.6800 H   0  0  0  0  0  0
    3.4457    0.6395   -3.4644 H   0  0  0  0  0  0
    1.2678   -2.0525    1.0370 H   0  0  0  0  0  0
    1.5349   -2.3807   -0.6421 H   0  0  0  0  0  0
    3.9265   -1.7210   -0.4175 H   0  0  0  0  0  0
    3.6512   -1.1811    1.2244 H   0  0  0  0  0  0
    3.0887   -3.5335    1.8902 H   0  0  0  0  0  0
    3.3428   -4.0625    0.2456 H   0  0  0  0  0  0
    5.3507   -4.5353    1.6350 H   0  0  0  0  0  0
    5.5017   -2.8304    2.0468 H   0  0  0  0  0  0
    5.7583   -3.3631    0.3862 H   0  0  0  0  0  0
    5.4330    2.3860   -2.4608 H   0  0  0  0  0  0
    6.5400    2.0312   -4.6405 H   0  0  0  0  0  0
    4.8141    2.2801   -4.8494 H   0  0  0  0  0  0
    5.4876    0.6587   -4.9763 H   0  0  0  0  0  0
    7.7326    2.1573   -1.8341 H   0  0  0  0  0  0
    9.4901    0.7403   -0.8428 H   0  0  0  0  0  0
    9.2017   -1.7119   -0.7667 H   0  0  0  0  0  0
    7.1622   -2.7605   -1.6857 H   0  0  0  0  0  0
    5.4002   -1.3600   -2.6805 H   0  0  0  0  0  0
   -2.1875    3.3767    1.0165 H   0  0  0  0  0  0
   -3.9020    3.3749    1.1443 H   0  0  0  0  0  0
   -5.0661    1.8639    2.7538 H   0  0  0  0  0  0
   -4.8895    0.7227    4.9349 H   0  0  0  0  0  0
   -2.6652    0.2158    5.8843 H   0  0  0  0  0  0
   -0.6112    0.8544    4.6683 H   0  0  0  0  0  0
   -0.7749    1.9999    2.4929 H   0  0  0  0  0  0
   -4.0170    3.2513   -1.4995 H   0  0  0  0  0  0
   -3.1253    1.9774   -2.3197 H   0  0  0  0  0  0
   -2.2652    3.2682   -1.5007 H   0  0  0  0  0  0
   -5.3268    1.5911   -0.0258 H   0  0  0  0  0  0
   -4.4751    0.2575    0.7429 H   0  0  0  0  0  0
   -4.5615    0.3422   -1.0014 H   0  0  0  0  0  0
  1  9  1  0  0  0
  1 10  2  0  0  0
  1  2  1  0  0  0
  2  3  1  0  0  0
  2 33  1  0  0  0
  3 11  1  0  0  0
  3  4  1  0  0  0
  3 34  1  0  0  0
  4  5  1  0  0  0
  4  6  2  0  0  0
  5  7  2  0  0  0
  5  8  1  0  0  0
  8 15  1  0  0  0
  8 35  1  0  0  0
  9 23  1  0  0  0
 11 12  1  0  0  0
 11 36  1  0  0  0
 11 37  1  0  0  0
 12 13  1  0  0  0
 12 38  1  0  0  0
 12 39  1  0  0  0
 13 14  1  0  0  0
 13 40  1  0  0  0
 13 41  1  0  0  0
 14 42  1  0  0  0
 14 43  1  0  0  0
 14 44  1  0  0  0
 15 17  1  0  0  0
 15 16  1  0  0  0
 15 45  1  0  0  0
 16 18  2  0  0  0
 16 22  1  0  0  0
 17 46  1  0  0  0
 17 47  1  0  0  0
 17 48  1  0  0  0
 18 19  1  0  0  0
 18 49  1  0  0  0
 19 20  2  0  0  0
 19 50  1  0  0  0
 20 21  1  0  0  0
 20 51  1  0  0  0
 21 22  2  0  0  0
 21 52  1  0  0  0
 22 53  1  0  0  0
 23 24  1  0  0  0
 23 31  1  0  0  0
 23 32  1  0  0  0
 24 25  1  0  0  0
 24 54  1  0  0  0
 24 55  1  0  0  0
 25 26  2  0  0  0
 25 30  1  0  0  0
 26 27  1  0  0  0
 26 56  1  0  0  0
 27 28  2  0  0  0
 27 57  1  0  0  0
 28 29  1  0  0  0
 28 58  1  0  0  0
 29 30  2  0  0  0
 29 59  1  0  0  0
 30 60  1  0  0  0
 31 61  1  0  0  0
 31 62  1  0  0  0
 31 63  1  0  0  0
 32 64  1  0  0  0
 32 65  1  0  0  0
 32 66  1  0  0  0
M  END
> <chembl_id>
CHEMBL187846

> <chembl_pref_name>
None

> <i_m_ct_stereo_status>
1

> <s_m_source_file>
sdf/inactives_sanitized.sdf

> <i_m_source_file_index>
42

> <i_lp_mmshare_version>
49012

> <i_f3d_flags>
0

> <s_epik_input>
W2NIXTFbY0hdW2NIXVtjSF1bY0hdYzFbQ0gyXUMoW0NIM10pKFtDSDNdKU9DKD1PKVtOSF1bQ0BASF0oW0NIMl1bQ0gyXVtDSDJdW0NIM10pQyg9TylDKD1PKVtOSF1bQ0BIXShbQ0gzXSljMltjSF1bY0hdW2NIXVtjSF1bY0hdMg==

> <s_epik_cmdline>
J2VwaWtfcHl0aG9uJywgJy1waHQnLCAnMC41JywgJy1waCcsICc3LjUnLCAnLW50JywgJy1tYScsICcyMDAnLCAnLWltYWUnLCAnPGluZmlsZS5tYWU+JywgJy1vbWFlJywgJzxvdXRmaWxlLm1hZT4n

> <r_lp_tautomer_probability>
1

> <r_epik_Ionization_Penalty>
  0.0000

> <r_epik_Ionization_Penalty_Charging>
  0.0000

> <r_epik_Ionization_Penalty_Neutral>
  0.0000

> <r_epik_State_Penalty>
 -0.0000

> <r_epik_Charging_Adjusted_Penalty>
0

> <i_epik_Tot_Q>
0

> <i_epik_Tot_abs_Q>
0

> <s_epik_Chemistry_Notes>
This compound has an ester and may undergo hydrolysis at high or low pH.

> <s_lp_Force_Field>
OPLS3e

> <r_lp_Energy>
34.165281

> <b_lp_Chiralities_Consistent>
1

> <s_lp_Variant>
sdf/inactives_sanitized.sdf:42-1

$$$$
sdf/inactives_sanitized.sdf:43
                    3D
 Schrodinger Suite 2020-1.
 50 50  0  0  1  0            999 V2000
   -1.2051    1.2627    0.8756 C   0  0  0  0  0  0
   -0.2775    0.8679   -0.0803 N   0  0  0  0  0  0
   -0.2037   -0.5325   -0.5285 C   0  0  2  0  0  0
    1.2922   -0.7949   -0.6984 C   0  0  0  0  0  0
    2.1383   -0.9072    0.6444 C   0  0  0  0  0  0
    1.8366   -0.9672   -1.7941 O   0  0  0  0  0  0
    1.6063   -0.8240    1.7527 O   0  0  0  0  0  0
    3.4497   -1.1057    0.4110 N   0  0  0  0  0  0
   -1.9872    0.5271    1.4809 O   0  0  0  0  0  0
   -0.9935   -0.7859   -1.8441 C   0  0  0  0  0  0
   -2.5176   -0.5891   -1.7129 C   0  0  0  0  0  0
   -3.2834   -0.9627   -2.9937 C   0  0  0  0  0  0
   -4.7987   -0.7571   -2.8636 C   0  0  0  0  0  0
   -1.1233    2.6117    1.0244 O   0  0  0  0  0  0
    4.4746   -1.2596    1.4418 C   0  0  0  0  0  0
    4.7699   -2.7203    1.7099 C   0  0  0  0  0  0
   -1.9524    3.4066    1.8930 C   0  0  0  0  0  0
   -1.7518    3.0158    3.3782 C   0  0  0  0  0  0
   -3.4455    3.3096    1.4912 C   0  0  0  0  0  0
   -1.4598    4.8518    1.6739 C   0  0  0  0  0  0
    3.6684   -3.7177    2.6257 S   0  0  0  0  0  0
    4.6942   -5.1028    2.4700 C   0  0  0  0  0  0
    5.8375   -4.8111    1.7497 C   0  0  0  0  0  0
    5.8777   -3.4787    1.3299 C   0  0  0  0  0  0
    0.1961    1.5741   -0.6245 H   0  0  0  0  0  0
   -0.5838   -1.2238    0.2281 H   0  0  0  0  0  0
    3.7651   -1.1539   -0.5472 H   0  0  0  0  0  0
   -0.6285   -0.1218   -2.6304 H   0  0  0  0  0  0
   -0.8057   -1.8062   -2.1844 H   0  0  0  0  0  0
   -2.8912   -1.1889   -0.8811 H   0  0  0  0  0  0
   -2.7328    0.4514   -1.4666 H   0  0  0  0  0  0
   -3.0854   -2.0046   -3.2493 H   0  0  0  0  0  0
   -2.9127   -0.3667   -3.8290 H   0  0  0  0  0  0
   -5.3085   -1.0289   -3.7882 H   0  0  0  0  0  0
   -5.0403    0.2839   -2.6464 H   0  0  0  0  0  0
   -5.2144   -1.3714   -2.0641 H   0  0  0  0  0  0
    5.3723   -0.7537    1.0849 H   0  0  0  0  0  0
    4.1943   -0.7340    2.3572 H   0  0  0  0  0  0
   -2.2636    3.7112    4.0445 H   0  0  0  0  0  0
   -0.6953    3.0204    3.6489 H   0  0  0  0  0  0
   -2.1356    2.0199    3.5987 H   0  0  0  0  0  0
   -3.8578    2.3169    1.6712 H   0  0  0  0  0  0
   -3.5850    3.5280    0.4318 H   0  0  0  0  0  0
   -4.0554    4.0168    2.0547 H   0  0  0  0  0  0
   -2.0134    5.5629    2.2884 H   0  0  0  0  0  0
   -1.5746    5.1595    0.6335 H   0  0  0  0  0  0
   -0.4028    4.9564    1.9235 H   0  0  0  0  0  0
    4.4107   -6.0474    2.9101 H   0  0  0  0  0  0
    6.6133   -5.5316    1.5362 H   0  0  0  0  0  0
    6.6970   -3.0715    0.7559 H   0  0  0  0  0  0
  1  2  1  0  0  0
  1 14  1  0  0  0
  1  9  2  0  0  0
  2  3  1  0  0  0
  2 25  1  0  0  0
  3  4  1  0  0  0
  3 10  1  0  0  0
  3 26  1  0  0  0
  4  5  1  0  0  0
  4  6  2  0  0  0
  5  7  2  0  0  0
  5  8  1  0  0  0
  8 15  1  0  0  0
  8 27  1  0  0  0
 10 11  1  0  0  0
 10 28  1  0  0  0
 10 29  1  0  0  0
 11 12  1  0  0  0
 11 30  1  0  0  0
 11 31  1  0  0  0
 12 13  1  0  0  0
 12 32  1  0  0  0
 12 33  1  0  0  0
 13 34  1  0  0  0
 13 35  1  0  0  0
 13 36  1  0  0  0
 14 17  1  0  0  0
 15 16  1  0  0  0
 15 37  1  0  0  0
 15 38  1  0  0  0
 16 21  1  0  0  0
 16 24  2  0  0  0
 17 18  1  0  0  0
 17 19  1  0  0  0
 17 20  1  0  0  0
 18 39  1  0  0  0
 18 40  1  0  0  0
 18 41  1  0  0  0
 19 42  1  0  0  0
 19 43  1  0  0  0
 19 44  1  0  0  0
 20 45  1  0  0  0
 20 46  1  0  0  0
 20 47  1  0  0  0
 21 22  1  0  0  0
 22 23  2  0  0  0
 22 48  1  0  0  0
 23 24  1  0  0  0
 23 49  1  0  0  0
 24 50  1  0  0  0
M  END
> <chembl_id>
CHEMBL439649

> <chembl_pref_name>
None

> <i_m_ct_stereo_status>
1

> <s_m_source_file>
sdf/inactives_sanitized.sdf

> <i_m_source_file_index>
43

> <i_lp_mmshare_version>
49012

> <i_f3d_flags>
0

> <s_epik_input>
W0NIM11DKFtDSDNdKShbQ0gzXSlPQyg9TylbTkhdW0NAQEhdKFtDSDJdW0NIMl1bQ0gyXVtDSDNdKUMoPU8pQyg9TylbTkhdW0NIMl1jMXNbY0hdW2NIXVtjSF0x

> <s_epik_cmdline>
J2VwaWtfcHl0aG9uJywgJy1waHQnLCAnMC41JywgJy1waCcsICc3LjUnLCAnLW50JywgJy1tYScsICcyMDAnLCAnLWltYWUnLCAnPGluZmlsZS5tYWU+JywgJy1vbWFlJywgJzxvdXRmaWxlLm1hZT4n

> <r_lp_tautomer_probability>
1

> <r_epik_Ionization_Penalty>
  0.0000

> <r_epik_Ionization_Penalty_Charging>
  0.0000

> <r_epik_Ionization_Penalty_Neutral>
  0.0000

> <r_epik_State_Penalty>
 -0.0000

> <r_epik_Charging_Adjusted_Penalty>
0

> <i_epik_Tot_Q>
0

> <i_epik_Tot_abs_Q>
0

> <s_epik_Chemistry_Notes>
This compound has an ester and may undergo hydrolysis at high or low pH.

> <s_lp_Force_Field>
OPLS3e

> <r_lp_Energy>
15.989167

> <b_lp_Chiralities_Consistent>
1

> <s_lp_Variant>
sdf/inactives_sanitized.sdf:43-1

$$$$
sdf/inactives_sanitized.sdf:44
                    3D
 Schrodinger Suite 2020-1.
 30 31  0  0  1  0            999 V2000
   -2.7276   -0.0130    0.0386 N   0  0  0  0  0  0
   -2.1201   -1.2369    0.0213 C   0  0  0  0  0  0
   -0.7174   -1.3408    0.0359 C   0  0  0  0  0  0
    0.0252   -0.1542    0.0821 C   0  0  0  0  0  0
   -0.5633    1.0719    0.1065 N   0  0  0  0  0  0
   -1.9188    1.0757    0.0827 C   0  0  0  0  0  0
   -2.5700    2.3740    0.1049 C   0  0  0  0  0  0
   -3.0887    3.4086    0.1225 N   0  0  0  0  0  0
   -3.0197   -2.4364   -0.0358 C   0  0  0  0  0  0
    1.5476   -0.1727    0.1013 C   0  0  0  0  0  0
    2.1459    0.3546    1.4196 C   0  0  0  0  0  0
    3.6797    0.3096    1.4379 C   0  0  0  0  0  0
   -2.5650   -3.6951    0.3888 C   0  0  0  0  0  0
   -3.3941   -4.8127    0.3391 C   0  0  0  0  0  0
   -4.6948   -4.6861   -0.1366 C   0  0  0  0  0  0
   -5.1714   -3.4504   -0.5608 C   0  0  0  0  0  0
   -4.3393   -2.3354   -0.5090 C   0  0  0  0  0  0
   -0.2155   -2.2961    0.0031 H   0  0  0  0  0  0
    1.9004   -1.1896   -0.0779 H   0  0  0  0  0  0
    1.9106    0.4206   -0.7396 H   0  0  0  0  0  0
    1.8204    1.3816    1.5908 H   0  0  0  0  0  0
    1.7624   -0.2316    2.2559 H   0  0  0  0  0  0
    4.0687    0.6929    2.3815 H   0  0  0  0  0  0
    4.1032    0.9143    0.6355 H   0  0  0  0  0  0
    4.0476   -0.7100    1.3188 H   0  0  0  0  0  0
   -1.5654   -3.8230    0.7756 H   0  0  0  0  0  0
   -3.0297   -5.7737    0.6712 H   0  0  0  0  0  0
   -5.3391   -5.5522   -0.1752 H   0  0  0  0  0  0
   -6.1822   -3.3562   -0.9297 H   0  0  0  0  0  0
   -4.7324   -1.3884   -0.8492 H   0  0  0  0  0  0
  1  6  2  0  0  0
  1  2  1  0  0  0
  2  9  1  0  0  0
  2  3  2  0  0  0
  3  4  1  0  0  0
  3 18  1  0  0  0
  4  5  2  0  0  0
  4 10  1  0  0  0
  5  6  1  0  0  0
  6  7  1  0  0  0
  7  8  3  0  0  0
  9 13  2  0  0  0
  9 17  1  0  0  0
 10 11  1  0  0  0
 10 19  1  0  0  0
 10 20  1  0  0  0
 11 12  1  0  0  0
 11 21  1  0  0  0
 11 22  1  0  0  0
 12 23  1  0  0  0
 12 24  1  0  0  0
 12 25  1  0  0  0
 13 14  1  0  0  0
 13 26  1  0  0  0
 14 15  2  0  0  0
 14 27  1  0  0  0
 15 16  1  0  0  0
 15 28  1  0  0  0
 16 17  2  0  0  0
 16 29  1  0  0  0
 17 30  1  0  0  0
M  END
> <chembl_id>
CHEMBL1077366

> <chembl_pref_name>
None

> <s_m_source_file>
sdf/inactives_sanitized.sdf

> <i_m_source_file_index>
44

> <i_lp_mmshare_version>
49012

> <i_m_ct_stereo_status>
1

> <i_f3d_flags>
0

> <s_epik_input>
W0NIM11bQ0gyXVtDSDJdYyhbY0hdMSluYyhDI04pbmMxLWMyW2NIXVtjSF1bY0hdW2NIXVtjSF0y

> <s_epik_cmdline>
J2VwaWtfcHl0aG9uJywgJy1waHQnLCAnMC41JywgJy1waCcsICc3LjUnLCAnLW50JywgJy1tYScsICcyMDAnLCAnLWltYWUnLCAnPGluZmlsZS5tYWU+JywgJy1vbWFlJywgJzxvdXRmaWxlLm1hZT4n

> <r_lp_tautomer_probability>
1

> <r_epik_Ionization_Penalty>
  0.0000

> <r_epik_Ionization_Penalty_Charging>
  0.0000

> <r_epik_Ionization_Penalty_Neutral>
  0.0000

> <r_epik_State_Penalty>
 -0.0000

> <r_epik_Charging_Adjusted_Penalty>
0

> <i_epik_Tot_Q>
0

> <i_epik_Tot_abs_Q>
0

> <s_lp_Force_Field>
OPLS3e

> <r_lp_Energy>
26.591529

> <b_lp_Chiralities_Consistent>
1

> <s_lp_Variant>
sdf/inactives_sanitized.sdf:44-1

$$$$
sdf/inactives_sanitized.sdf:45
                    3D
 Schrodinger Suite 2020-1.
 33 35  0  0  1  0            999 V2000
   -0.7135    1.1030    0.1415 C   0  0  0  0  0  0
   -0.0174   -0.1014   -0.0516 C   0  0  0  0  0  0
   -0.7504   -1.2786   -0.2629 C   0  0  0  0  0  0
   -2.1422   -1.2594   -0.2735 C   0  0  0  0  0  0
   -2.8619   -0.0712   -0.0752 C   0  0  0  0  0  0
   -2.1153    1.1018    0.1272 C   0  0  0  0  0  0
   -4.3681   -0.0561   -0.0765 C   0  0  0  0  0  0
   -5.0075   -1.2283   -0.3797 N   0  0  0  0  0  0
   -6.3421    1.1499    0.2381 C   0  0  0  0  0  0
   -4.9835    1.1250    0.2300 N   0  0  0  0  0  0
   -6.9576    2.4258    0.5700 C   0  0  0  0  0  0
   -7.4469    3.4411    0.8341 N   0  0  0  0  0  0
    0.0532    2.4108    0.3700 C   0  0  0  0  0  0
    0.8133    2.3019    1.4605 F   0  0  0  0  0  0
    0.8419    2.6590   -0.6764 F   0  0  0  0  0  0
   -0.7507    3.4635    0.5351 F   0  0  0  0  0  0
    1.3661   -0.0592   -0.0260 O   0  0  0  0  0  0
   -7.2218   -2.1741   -0.6230 N   0  5  0  0  0  0
   -8.3852   -1.5801   -0.4679 C   0  0  0  0  0  0
   -8.3958   -0.3072   -0.1370 N   0  0  0  0  0  0
   -7.0717   -0.0122   -0.0624 C   0  0  0  0  0  0
   -6.3436   -1.1733   -0.3644 C   0  0  0  0  0  0
    2.1139   -1.2675   -0.1256 C   0  0  0  0  0  0
    3.6017   -0.9349    0.0188 C   0  0  0  0  0  0
   -0.2581   -2.2258   -0.4216 H   0  0  0  0  0  0
   -2.6566   -2.1952   -0.4362 H   0  0  0  0  0  0
   -2.6340    2.0369    0.2779 H   0  0  0  0  0  0
   -9.3081   -2.1236   -0.6088 H   0  0  0  0  0  0
    1.8197   -1.9655    0.6602 H   0  0  0  0  0  0
    1.9360   -1.7461   -1.0901 H   0  0  0  0  0  0
    4.2114   -1.8363   -0.0478 H   0  0  0  0  0  0
    3.8077   -0.4631    0.9801 H   0  0  0  0  0  0
    3.9288   -0.2518   -0.7658 H   0  0  0  0  0  0
  1  6  2  0  0  0
  1 13  1  0  0  0
  1  2  1  0  0  0
  2 17  1  0  0  0
  2  3  2  0  0  0
  3  4  1  0  0  0
  3 25  1  0  0  0
  4  5  2  0  0  0
  4 26  1  0  0  0
  5  6  1  0  0  0
  5  7  1  0  0  0
  6 27  1  0  0  0
  7  8  2  0  0  0
  7 10  1  0  0  0
  8 22  1  0  0  0
  9 11  1  0  0  0
  9 21  1  0  0  0
  9 10  2  0  0  0
 11 12  3  0  0  0
 13 14  1  0  0  0
 13 15  1  0  0  0
 13 16  1  0  0  0
 17 23  1  0  0  0
 18 19  1  0  0  0
 18 22  1  0  0  0
 19 20  2  0  0  0
 19 28  1  0  0  0
 20 21  1  0  0  0
 21 22  2  0  0  0
 23 24  1  0  0  0
 23 29  1  0  0  0
 23 30  1  0  0  0
 24 31  1  0  0  0
 24 32  1  0  0  0
 24 33  1  0  0  0
M  CHG  1  18  -1
M  END
> <chembl_id>
CHEMBL1209531

> <chembl_pref_name>
None

> <s_m_source_file>
sdf/inactives_sanitized.sdf

> <i_m_source_file_index>
45

> <i_lp_mmshare_version>
49012

> <i_m_ct_stereo_status>
1

> <i_f3d_flags>
0

> <s_epik_input>
RkMoRikoRiljMWMoT1tDSDJdW0NIM10pW2NIXVtjSF1jKFtjSF0xKS1jKG5jMkMjTiluYyhjMjMpW25IXVtjSF1uMw==

> <s_epik_cmdline>
J2VwaWtfcHl0aG9uJywgJy1waHQnLCAnMC41JywgJy1waCcsICc3LjUnLCAnLW50JywgJy1tYScsICcyMDAnLCAnLWltYWUnLCAnPGluZmlsZS5tYWU+JywgJy1vbWFlJywgJzxvdXRmaWxlLm1hZT4n

> <r_lp_tautomer_probability>
1

> <r_epik_Ionization_Penalty>
  0.2369

> <r_epik_Ionization_Penalty_Charging>
  0.2259

> <r_epik_Ionization_Penalty_Neutral>
  0.0110

> <r_epik_State_Penalty>
  0.2164

> <r_epik_Charging_Adjusted_Penalty>
0.442284066876782

> <i_epik_Tot_Q>
-1

> <i_epik_Tot_abs_Q>
1

> <s_lp_Force_Field>
OPLS3e

> <r_lp_Energy>
30.218906

> <b_lp_Chiralities_Consistent>
1

> <s_lp_Variant>
sdf/inactives_sanitized.sdf:45-1

$$$$
sdf/inactives_sanitized.sdf:46
                    3D
 Schrodinger Suite 2020-1.
 57 60  0  0  1  0            999 V2000
   -9.2916    0.7655    1.5245 N   0  0  0  0  0  0
   -8.8988   -0.0361    0.0156 S   0  0  0  0  0  0
   -9.3126   -1.4381    0.1391 O   0  0  0  0  0  0
   -9.3950    0.8051   -1.0793 O   0  0  0  0  0  0
   -7.1102   -0.0221   -0.0419 C   0  0  0  0  0  0
   -6.4350    0.7960   -0.9477 C   0  0  0  0  0  0
   -5.0431    0.8019   -0.9685 C   0  0  0  0  0  0
   -4.3064   -0.0060   -0.0906 C   0  0  0  0  0  0
   -5.0027   -0.8270    0.8076 C   0  0  0  0  0  0
   -6.3942   -0.8364    0.8343 C   0  0  0  0  0  0
   -2.8120    0.0122   -0.1072 C   0  0  0  0  0  0
   -2.0771   -1.1534    0.1500 C   0  0  0  0  0  0
   -0.6855   -1.1350    0.1458 C   0  0  0  0  0  0
   -0.0056    0.0542   -0.1143 C   0  0  0  0  0  0
    1.5172    0.0798   -0.0795 C   0  0  0  0  0  0
    2.1044    0.0836    1.3497 C   0  0  2  0  0  0
    1.6969    1.2539    2.1331 N   0  0  0  0  0  0
    0.7060    1.2783    3.0438 C   0  0  0  0  0  0
    0.0551    0.2728    3.3401 O   0  0  0  0  0  0
    0.4431    2.6516    3.7165 C   0  0  1  0  0  0
   -0.8865    2.6508    4.3787 N   0  0  1  0  0  0
   -0.8195    3.0857    5.7866 C   0  0  2  0  0  0
   -0.1882    4.5054    5.8259 C   0  0  0  0  0  0
    1.2380    4.4826    5.2035 C   0  0  0  0  0  0
    1.5906    3.0492    4.7143 C   0  0  1  0  0  0
    1.5268    2.0882    5.9398 C   0  0  0  0  0  0
    0.0995    2.0975    6.5558 C   0  0  0  0  0  0
    3.5730   -0.0181    1.3407 C   0  0  0  0  0  0
    4.7275   -0.0977    1.3336 N   0  0  0  0  0  0
   -0.7222    1.2217   -0.3780 C   0  0  0  0  0  0
   -2.1137    1.1981   -0.3741 C   0  0  0  0  0  0
   -9.0529    1.7604    1.5494 H   0  0  0  0  0  0
   -8.9964    0.2586    2.3631 H   0  0  0  0  0  0
   -6.9779    1.4293   -1.6339 H   0  0  0  0  0  0
   -4.5404    1.4384   -1.6818 H   0  0  0  0  0  0
   -4.4682   -1.4556    1.5047 H   0  0  0  0  0  0
   -6.9117   -1.4715    1.5386 H   0  0  0  0  0  0
   -2.5804   -2.0877    0.3517 H   0  0  0  0  0  0
   -0.1383   -2.0429    0.3547 H   0  0  0  0  0  0
    1.8888   -0.7861   -0.6301 H   0  0  0  0  0  0
    1.8824    0.9447   -0.6360 H   0  0  0  0  0  0
    1.7885   -0.8327    1.8537 H   0  0  0  0  0  0
    2.1247    2.1304    1.8728 H   0  0  0  0  0  0
    0.4013    3.3631    2.8891 H   0  0  0  0  0  0
   -1.4781    3.3143    3.8995 H   0  0  0  0  0  0
   -1.8224    3.0933    6.2150 H   0  0  0  0  0  0
   -0.8217    5.2144    5.2905 H   0  0  0  0  0  0
   -0.1414    4.8631    6.8556 H   0  0  0  0  0  0
    1.3002    5.1905    4.3755 H   0  0  0  0  0  0
    1.9728    4.8179    5.9371 H   0  0  0  0  0  0
    2.5744    3.0300    4.2426 H   0  0  0  0  0  0
    1.8118    1.0747    5.6540 H   0  0  0  0  0  0
    2.2573    2.3964    6.6892 H   0  0  0  0  0  0
   -0.3263    1.0932    6.5287 H   0  0  0  0  0  0
    0.1482    2.3755    7.6095 H   0  0  0  0  0  0
   -0.2056    2.1504   -0.5722 H   0  0  0  0  0  0
   -2.6464    2.1183   -0.5646 H   0  0  0  0  0  0
  1  2  1  0  0  0
  1 32  1  0  0  0
  1 33  1  0  0  0
  2  3  2  0  0  0
  2  4  2  0  0  0
  2  5  1  0  0  0
  5  6  2  0  0  0
  5 10  1  0  0  0
  6  7  1  0  0  0
  6 34  1  0  0  0
  7  8  2  0  0  0
  7 35  1  0  0  0
  8  9  1  0  0  0
  8 11  1  0  0  0
  9 10  2  0  0  0
  9 36  1  0  0  0
 10 37  1  0  0  0
 11 12  2  0  0  0
 11 31  1  0  0  0
 12 13  1  0  0  0
 12 38  1  0  0  0
 13 14  2  0  0  0
 13 39  1  0  0  0
 14 15  1  0  0  0
 14 30  1  0  0  0
 15 16  1  0  0  0
 15 40  1  0  0  0
 15 41  1  0  0  0
 16 17  1  0  0  0
 16 28  1  0  0  0
 16 42  1  0  0  0
 17 18  1  0  0  0
 17 43  1  0  0  0
 18 19  2  0  0  0
 18 20  1  0  0  0
 20 21  1  0  0  0
 20 25  1  0  0  0
 20 44  1  0  0  0
 21 22  1  0  0  0
 21 45  1  0  0  0
 22 23  1  0  0  0
 22 27  1  0  0  0
 22 46  1  0  0  0
 23 24  1  0  0  0
 23 47  1  0  0  0
 23 48  1  0  0  0
 24 25  1  0  0  0
 24 49  1  0  0  0
 24 50  1  0  0  0
 25 26  1  0  0  0
 25 51  1  0  0  0
 26 27  1  0  0  0
 26 52  1  0  0  0
 26 53  1  0  0  0
 27 54  1  0  0  0
 27 55  1  0  0  0
 28 29  3  0  0  0
 30 31  2  0  0  0
 30 56  1  0  0  0
 31 57  1  0  0  0
M  END
> <chembl_id>
CHEMBL3695340

> <chembl_pref_name>
None

> <i_m_ct_stereo_status>
1

> <s_m_source_file>
sdf/inactives_sanitized.sdf

> <i_m_source_file_index>
46

> <i_lp_mmshare_version>
49012

> <i_f3d_flags>
0

> <s_epik_input>
W05IMl1TKD1PKSg9TyljMVtjSF1bY0hdYyhbY0hdW2NIXTEpLWMyW2NIXVtjSF1jKFtjSF1bY0hdMilbQ0gyXVtDQEBIXShDI04pW05IXUMoPU8pW0NAQEhdKFtOSF1bQ0BIXTM0KVtDQEBIXShbQ0gyXVtDSDJdMylbQ0gyXVtDSDJdNA==

> <s_epik_cmdline>
J2VwaWtfcHl0aG9uJywgJy1waHQnLCAnMC41JywgJy1waCcsICc3LjUnLCAnLW50JywgJy1tYScsICcyMDAnLCAnLWltYWUnLCAnPGluZmlsZS5tYWU+JywgJy1vbWFlJywgJzxvdXRmaWxlLm1hZT4n

> <r_epik_Ionization_Penalty>
  0.4117

> <r_epik_Ionization_Penalty_Charging>
  0.0000

> <r_epik_Ionization_Penalty_Neutral>
  0.4117

> <r_epik_State_Penalty>
  0.4100

> <r_epik_Charging_Adjusted_Penalty>
0.410033589345069

> <i_epik_Tot_Q>
0

> <i_epik_Tot_abs_Q>
0

> <s_lp_Force_Field>
OPLS3e

> <r_lp_Energy>
36.957415

> <b_lp_Chiralities_Consistent>
1

> <s_lp_Variant>
sdf/inactives_sanitized.sdf:46-1

$$$$
sdf/inactives_sanitized.sdf:46
                    3D
 Schrodinger Suite 2020-1.
 58 61  0  0  1  0            999 V2000
   -9.3718   -0.7323   -1.3850 N   0  0  0  0  0  0
   -8.9366    0.0754    0.1092 S   0  0  0  0  0  0
   -9.3404    1.4802   -0.0141 O   0  0  0  0  0  0
   -9.4153   -0.7538    1.2208 O   0  0  0  0  0  0
   -7.1469    0.0465    0.1275 C   0  0  0  0  0  0
   -6.4440    0.8487   -0.7700 C   0  0  0  0  0  0
   -5.0524    0.8330   -0.7693 C   0  0  0  0  0  0
   -4.3424    0.0179    0.1237 C   0  0  0  0  0  0
   -5.0660   -0.7794    1.0217 C   0  0  0  0  0  0
   -6.4582   -0.7672    1.0272 C   0  0  0  0  0  0
   -2.8476   -0.0036    0.1140 C   0  0  0  0  0  0
   -2.1463   -1.1885    0.3780 C   0  0  0  0  0  0
   -0.7547   -1.2145    0.3566 C   0  0  0  0  0  0
   -0.0409   -0.0506    0.0704 C   0  0  0  0  0  0
    1.4814   -0.0778    0.0123 C   0  0  0  0  0  0
    2.0482   -0.0866   -1.4253 C   0  0  2  0  0  0
    1.6484   -1.2700   -2.1923 N   0  0  0  0  0  0
    0.6351   -1.3249   -3.0750 C   0  0  0  0  0  0
   -0.0573   -0.3419   -3.3522 O   0  0  0  0  0  0
    0.3927   -2.7137   -3.7198 C   0  0  1  0  0  0
   -0.9443   -2.6071   -4.5124 N   0  3  0  0  0  0
   -0.7855   -3.0232   -5.9947 C   0  0  2  0  0  0
   -0.2373   -4.4732   -5.9921 C   0  0  0  0  0  0
    1.1303   -4.5453   -5.2534 C   0  0  0  0  0  0
    1.5426   -3.1549   -4.6910 C   0  0  1  0  0  0
    1.6189   -2.1637   -5.8936 C   0  0  0  0  0  0
    0.2502   -2.0571   -6.6227 C   0  0  0  0  0  0
    3.5150    0.0338   -1.4398 C   0  0  0  0  0  0
    4.6682    0.1276   -1.4520 N   0  0  0  0  0  0
   -0.7236    1.1378   -0.1863 C   0  0  0  0  0  0
   -2.1151    1.1587   -0.1650 C   0  0  0  0  0  0
   -9.1447   -1.7297   -1.4099 H   0  0  0  0  0  0
   -9.0966   -0.2324   -2.2344 H   0  0  0  0  0  0
   -6.9729    1.4806   -1.4688 H   0  0  0  0  0  0
   -4.5291    1.4542   -1.4813 H   0  0  0  0  0  0
   -4.5529   -1.4109    1.7323 H   0  0  0  0  0  0
   -6.9912   -1.3906    1.7300 H   0  0  0  0  0  0
   -2.6771   -2.1056    0.5881 H   0  0  0  0  0  0
   -0.2356   -2.1417    0.5519 H   0  0  0  0  0  0
    1.8609    0.7907    0.5536 H   0  0  0  0  0  0
    1.8548   -0.9401    0.5677 H   0  0  0  0  0  0
    1.7130    0.8196   -1.9348 H   0  0  0  0  0  0
    2.1102   -2.1322   -1.9418 H   0  0  0  0  0  0
    0.2068   -3.4207   -2.9093 H   0  0  0  0  0  0
   -1.6372   -3.2015   -4.0801 H   0  0  0  0  0  0
   -1.7742   -2.9398   -6.4474 H   0  0  0  0  0  0
   -0.9550   -5.1457   -5.5196 H   0  0  0  0  0  0
   -0.1263   -4.8281   -7.0179 H   0  0  0  0  0  0
    1.0816   -5.2773   -4.4455 H   0  0  0  0  0  0
    1.9011   -4.9124   -5.9332 H   0  0  0  0  0  0
    2.5023   -3.2203   -4.1752 H   0  0  0  0  0  0
    1.9525   -1.1783   -5.5656 H   0  0  0  0  0  0
    2.3822   -2.5028   -6.5961 H   0  0  0  0  0  0
   -0.1191   -1.0312   -6.5742 H   0  0  0  0  0  0
    0.3724   -2.2808   -7.6836 H   0  0  0  0  0  0
   -0.1787    2.0437   -0.4096 H   0  0  0  0  0  0
   -2.6207    2.0927   -0.3621 H   0  0  0  0  0  0
   -1.2811   -1.6551   -4.4676 H   0  0  0  0  0  0
  1  2  1  0  0  0
  1 32  1  0  0  0
  1 33  1  0  0  0
  2  3  2  0  0  0
  2  4  2  0  0  0
  2  5  1  0  0  0
  5  6  2  0  0  0
  5 10  1  0  0  0
  6  7  1  0  0  0
  6 34  1  0  0  0
  7  8  2  0  0  0
  7 35  1  0  0  0
  8  9  1  0  0  0
  8 11  1  0  0  0
  9 10  2  0  0  0
  9 36  1  0  0  0
 10 37  1  0  0  0
 11 12  2  0  0  0
 11 31  1  0  0  0
 12 13  1  0  0  0
 12 38  1  0  0  0
 13 14  2  0  0  0
 13 39  1  0  0  0
 14 15  1  0  0  0
 14 30  1  0  0  0
 15 16  1  0  0  0
 15 40  1  0  0  0
 15 41  1  0  0  0
 16 17  1  0  0  0
 16 28  1  0  0  0
 16 42  1  0  0  0
 17 18  1  0  0  0
 17 43  1  0  0  0
 18 19  2  0  0  0
 18 20  1  0  0  0
 20 21  1  0  0  0
 20 25  1  0  0  0
 20 44  1  0  0  0
 21 22  1  0  0  0
 21 45  1  0  0  0
 21 58  1  0  0  0
 22 23  1  0  0  0
 22 27  1  0  0  0
 22 46  1  0  0  0
 23 24  1  0  0  0
 23 47  1  0  0  0
 23 48  1  0  0  0
 24 25  1  0  0  0
 24 49  1  0  0  0
 24 50  1  0  0  0
 25 26  1  0  0  0
 25 51  1  0  0  0
 26 27  1  0  0  0
 26 52  1  0  0  0
 26 53  1  0  0  0
 27 54  1  0  0  0
 27 55  1  0  0  0
 28 29  3  0  0  0
 30 31  2  0  0  0
 30 56  1  0  0  0
 31 57  1  0  0  0
M  CHG  1  21   1
M  END
> <chembl_id>
CHEMBL3695340

> <chembl_pref_name>
None

> <i_m_ct_stereo_status>
1

> <s_m_source_file>
sdf/inactives_sanitized.sdf

> <i_m_source_file_index>
46

> <i_lp_mmshare_version>
49012

> <i_f3d_flags>
0

> <s_epik_input>
W05IMl1TKD1PKSg9TyljMVtjSF1bY0hdYyhbY0hdW2NIXTEpLWMyW2NIXVtjSF1jKFtjSF1bY0hdMilbQ0gyXVtDQEBIXShDI04pW05IXUMoPU8pW0NAQEhdKFtOSF1bQ0BIXTM0KVtDQEBIXShbQ0gyXVtDSDJdMylbQ0gyXVtDSDJdNA==

> <s_epik_cmdline>
J2VwaWtfcHl0aG9uJywgJy1waHQnLCAnMC41JywgJy1waCcsICc3LjUnLCAnLW50JywgJy1tYScsICcyMDAnLCAnLWltYWUnLCAnPGluZmlsZS5tYWU+JywgJy1vbWFlJywgJzxvdXRmaWxlLm1hZT4n

> <r_epik_Ionization_Penalty>
  0.4131

> <r_epik_Ionization_Penalty_Charging>
  0.4113

> <r_epik_Ionization_Penalty_Neutral>
  0.0018

> <r_epik_State_Penalty>
  0.4113

> <r_epik_Charging_Adjusted_Penalty>
0.822612897831462

> <i_epik_Tot_Q>
1

> <i_epik_Tot_abs_Q>
1

> <s_lp_Force_Field>
OPLS3e

> <r_lp_Energy>
45.713497

> <b_lp_Chiralities_Consistent>
1

> <s_lp_Variant>
sdf/inactives_sanitized.sdf:46-2

$$$$
sdf/inactives_sanitized.sdf:47
                    3D
 Schrodinger Suite 2020-1.
 32 33  0  0  1  0            999 V2000
   -0.6919    1.1334    0.0319 C   0  0  0  0  0  0
   -0.0200   -0.0997   -0.0186 C   0  0  0  0  0  0
   -0.7768   -1.2801   -0.0681 C   0  0  0  0  0  0
   -2.1679   -1.2355   -0.0650 C   0  0  0  0  0  0
   -2.8584   -0.0166   -0.0096 C   0  0  0  0  0  0
   -2.0939    1.1583    0.0362 C   0  0  0  0  0  0
    0.1021    2.4441    0.0804 C   0  0  0  0  0  0
    0.8863    2.4562    1.1591 F   0  0  0  0  0  0
    0.8690    2.5462   -1.0059 F   0  0  0  0  0  0
   -0.6816    3.5232    0.1321 F   0  0  0  0  0  0
   -4.3578    0.0335   -0.0057 C   0  0  0  0  0  0
   -5.0771    1.1191    0.5215 C   0  0  0  0  0  0
   -6.4731    1.0941    0.4949 C   0  0  0  0  0  0
   -7.1333   -0.0067   -0.0505 C   0  0  0  0  0  0
   -6.3616   -1.0568   -0.5506 C   0  0  0  0  0  0
   -5.0043   -1.0480   -0.5302 N   0  0  0  0  0  0
   -6.9764   -2.2396   -1.1304 C   0  0  0  0  0  0
   -7.4664   -3.1811   -1.5920 N   0  0  0  0  0  0
    1.3643   -0.0813   -0.0199 O   0  0  0  0  0  0
    2.0898   -1.3072   -0.0317 C   0  0  0  0  0  0
    3.5876   -0.9904    0.0009 C   0  0  0  0  0  0
   -0.3037   -2.2492   -0.1099 H   0  0  0  0  0  0
   -2.7075   -2.1709   -0.0996 H   0  0  0  0  0  0
   -2.5967    2.1129    0.0615 H   0  0  0  0  0  0
   -4.5768    1.9703    0.9581 H   0  0  0  0  0  0
   -7.0385    1.9219    0.8970 H   0  0  0  0  0  0
   -8.2137   -0.0363   -0.0775 H   0  0  0  0  0  0
    1.8266   -1.9148    0.8360 H   0  0  0  0  0  0
    1.8568   -1.8795   -0.9312 H   0  0  0  0  0  0
    4.1800   -1.9056   -0.0003 H   0  0  0  0  0  0
    3.8502   -0.4243    0.8952 H   0  0  0  0  0  0
    3.8832   -0.4007   -0.8673 H   0  0  0  0  0  0
  1  6  2  0  0  0
  1  2  1  0  0  0
  1  7  1  0  0  0
  2  3  2  0  0  0
  2 19  1  0  0  0
  3  4  1  0  0  0
  3 22  1  0  0  0
  4  5  2  0  0  0
  4 23  1  0  0  0
  5 11  1  0  0  0
  5  6  1  0  0  0
  6 24  1  0  0  0
  7  8  1  0  0  0
  7  9  1  0  0  0
  7 10  1  0  0  0
 11 12  2  0  0  0
 11 16  1  0  0  0
 12 13  1  0  0  0
 12 25  1  0  0  0
 13 14  2  0  0  0
 13 26  1  0  0  0
 14 15  1  0  0  0
 14 27  1  0  0  0
 15 16  2  0  0  0
 15 17  1  0  0  0
 17 18  3  0  0  0
 19 20  1  0  0  0
 20 21  1  0  0  0
 20 28  1  0  0  0
 20 29  1  0  0  0
 21 30  1  0  0  0
 21 31  1  0  0  0
 21 32  1  0  0  0
M  END
> <chembl_id>
CHEMBL1209772

> <chembl_pref_name>
None

> <s_m_source_file>
sdf/inactives_sanitized.sdf

> <i_m_source_file_index>
47

> <i_lp_mmshare_version>
49012

> <i_m_ct_stereo_status>
1

> <i_f3d_flags>
0

> <s_epik_input>
RkMoRikoRiljMWMoT1tDSDJdW0NIM10pW2NIXVtjSF1jKFtjSF0xKS1jMltjSF1bY0hdW2NIXWMobjIpQyNO

> <s_epik_cmdline>
J2VwaWtfcHl0aG9uJywgJy1waHQnLCAnMC41JywgJy1waCcsICc3LjUnLCAnLW50JywgJy1tYScsICcyMDAnLCAnLWltYWUnLCAnPGluZmlsZS5tYWU+JywgJy1vbWFlJywgJzxvdXRmaWxlLm1hZT4n

> <r_lp_tautomer_probability>
1

> <r_epik_Ionization_Penalty>
  0.0000

> <r_epik_Ionization_Penalty_Charging>
  0.0000

> <r_epik_Ionization_Penalty_Neutral>
  0.0000

> <r_epik_State_Penalty>
 -0.0000

> <r_epik_Charging_Adjusted_Penalty>
0

> <i_epik_Tot_Q>
0

> <i_epik_Tot_abs_Q>
0

> <s_lp_Force_Field>
OPLS3e

> <r_lp_Energy>
27.774963

> <b_lp_Chiralities_Consistent>
1

> <s_lp_Variant>
sdf/inactives_sanitized.sdf:47-1

$$$$
sdf/inactives_sanitized.sdf:48
                    3D
 Schrodinger Suite 2020-1.
 46 45  0  0  1  0            999 V2000
   -1.2126    1.2368    0.9714 C   0  0  0  0  0  0
   -0.2554    0.6948    0.1229 N   0  0  0  0  0  0
   -0.2429   -0.7462   -0.1794 C   0  0  2  0  0  0
    1.2414   -1.1075   -0.2304 C   0  0  0  0  0  0
    2.0064   -1.1186    1.1654 C   0  0  0  0  0  0
    1.8323   -1.4276   -1.2673 O   0  0  0  0  0  0
    1.4261   -0.8667    2.2230 O   0  0  0  0  0  0
    3.3106   -1.4285    1.0366 N   0  0  0  0  0  0
   -2.0829    0.6132    1.5823 O   0  0  0  0  0  0
   -0.9738   -1.0905   -1.5085 C   0  0  0  0  0  0
   -2.4893   -0.8043   -1.4884 C   0  0  0  0  0  0
   -3.2068   -1.2777   -2.7644 C   0  0  0  0  0  0
   -4.7115   -0.9764   -2.7490 C   0  0  0  0  0  0
   -1.0419    2.5855    1.0086 O   0  0  0  0  0  0
    4.2626   -1.5134    2.1419 C   0  0  0  0  0  0
    4.7204   -0.1407    2.6589 C   0  0  0  0  0  0
   -1.8626    3.5093    1.7484 C   0  0  0  0  0  0
   -1.7967    3.2331    3.2711 C   0  0  0  0  0  0
   -3.3267    3.4888    1.2427 C   0  0  0  0  0  0
   -1.2423    4.8906    1.4549 C   0  0  0  0  0  0
    0.2957    1.3141   -0.4533 H   0  0  0  0  0  0
   -0.7047   -1.3337    0.6185 H   0  0  0  0  0  0
    3.6720   -1.6207    0.1132 H   0  0  0  0  0  0
   -0.8259   -2.1483   -1.7349 H   0  0  0  0  0  0
   -0.5295   -0.5293   -2.3334 H   0  0  0  0  0  0
   -2.9396   -1.2903   -0.6215 H   0  0  0  0  0  0
   -2.6584    0.2662   -1.3668 H   0  0  0  0  0  0
   -2.7563   -0.8022   -3.6368 H   0  0  0  0  0  0
   -3.0591   -2.3511   -2.8909 H   0  0  0  0  0  0
   -5.1897   -1.3342   -3.6613 H   0  0  0  0  0  0
   -4.8996    0.0952   -2.6754 H   0  0  0  0  0  0
   -5.2040   -1.4614   -1.9056 H   0  0  0  0  0  0
    3.8397   -2.1017    2.9589 H   0  0  0  0  0  0
    5.1306   -2.0715    1.7895 H   0  0  0  0  0  0
    5.4400   -0.2564    3.4695 H   0  0  0  0  0  0
    3.8842    0.4408    3.0489 H   0  0  0  0  0  0
    5.2054    0.4384    1.8724 H   0  0  0  0  0  0
   -2.3034    4.0145    3.8388 H   0  0  0  0  0  0
   -0.7644    3.1910    3.6209 H   0  0  0  0  0  0
   -2.2659    2.2872    3.5408 H   0  0  0  0  0  0
   -3.8246    2.5435    1.4580 H   0  0  0  0  0  0
   -3.3738    3.6381    0.1634 H   0  0  0  0  0  0
   -3.9193    4.2770    1.7087 H   0  0  0  0  0  0
   -1.7853    5.6906    1.9599 H   0  0  0  0  0  0
   -1.2496    5.1132    0.3867 H   0  0  0  0  0  0
   -0.2035    4.9408    1.7848 H   0  0  0  0  0  0
  1  2  1  0  0  0
  1 14  1  0  0  0
  1  9  2  0  0  0
  2  3  1  0  0  0
  2 21  1  0  0  0
  3  4  1  0  0  0
  3 10  1  0  0  0
  3 22  1  0  0  0
  4  6  2  0  0  0
  4  5  1  0  0  0
  5  7  2  0  0  0
  5  8  1  0  0  0
  8 15  1  0  0  0
  8 23  1  0  0  0
 10 11  1  0  0  0
 10 24  1  0  0  0
 10 25  1  0  0  0
 11 12  1  0  0  0
 11 26  1  0  0  0
 11 27  1  0  0  0
 12 13  1  0  0  0
 12 28  1  0  0  0
 12 29  1  0  0  0
 13 30  1  0  0  0
 13 31  1  0  0  0
 13 32  1  0  0  0
 14 17  1  0  0  0
 15 16  1  0  0  0
 15 33  1  0  0  0
 15 34  1  0  0  0
 16 35  1  0  0  0
 16 36  1  0  0  0
 16 37  1  0  0  0
 17 18  1  0  0  0
 17 19  1  0  0  0
 17 20  1  0  0  0
 18 38  1  0  0  0
 18 39  1  0  0  0
 18 40  1  0  0  0
 19 41  1  0  0  0
 19 42  1  0  0  0
 19 43  1  0  0  0
 20 44  1  0  0  0
 20 45  1  0  0  0
 20 46  1  0  0  0
M  END
> <chembl_id>
CHEMBL346748

> <chembl_pref_name>
None

> <i_m_ct_stereo_status>
1

> <s_m_source_file>
sdf/inactives_sanitized.sdf

> <i_m_source_file_index>
48

> <i_lp_mmshare_version>
49012

> <i_f3d_flags>
0

> <s_epik_input>
W0NIM11DKFtDSDNdKShbQ0gzXSlPQyg9TylbTkhdW0NAQEhdKFtDSDJdW0NIMl1bQ0gyXVtDSDNdKUMoPU8pQyg9TylbTkhdW0NIMl1bQ0gzXQ==

> <s_epik_cmdline>
J2VwaWtfcHl0aG9uJywgJy1waHQnLCAnMC41JywgJy1waCcsICc3LjUnLCAnLW50JywgJy1tYScsICcyMDAnLCAnLWltYWUnLCAnPGluZmlsZS5tYWU+JywgJy1vbWFlJywgJzxvdXRmaWxlLm1hZT4n

> <r_lp_tautomer_probability>
1

> <r_epik_Ionization_Penalty>
  0.0000

> <r_epik_Ionization_Penalty_Charging>
  0.0000

> <r_epik_Ionization_Penalty_Neutral>
  0.0000

> <r_epik_State_Penalty>
 -0.0000

> <r_epik_Charging_Adjusted_Penalty>
0

> <i_epik_Tot_Q>
0

> <i_epik_Tot_abs_Q>
0

> <s_epik_Chemistry_Notes>
This compound has an ester and may undergo hydrolysis at high or low pH.

> <s_lp_Force_Field>
OPLS3e

> <r_lp_Energy>
12.2616

> <b_lp_Chiralities_Consistent>
1

> <s_lp_Variant>
sdf/inactives_sanitized.sdf:48-1

$$$$
sdf/inactives_sanitized.sdf:49
                    3D
 Schrodinger Suite 2020-1.
 39 40  0  0  1  0            999 V2000
   -0.6487    1.2236    0.2691 C   0  0  0  0  0  0
    0.0040    0.0162    0.0797 N   0  0  0  0  0  0
   -0.5700   -1.2243   -0.1790 C   0  0  0  0  0  0
   -1.9559   -1.1849   -0.0632 N   0  0  0  0  0  0
   -2.7176   -0.0136   -0.0374 N   0  0  0  0  0  0
   -2.1011    1.0931    0.1445 C   0  0  0  0  0  0
    0.0726   -2.2485   -0.4366 O   0  0  0  0  0  0
   -2.9159    2.2875    0.2197 C   0  0  0  0  0  0
   -3.6005    3.2197    0.2699 N   0  0  0  0  0  0
   -0.0960    2.3005    0.5096 O   0  0  0  0  0  0
    1.4855    0.0574    0.1450 C   0  0  0  0  0  0
   -2.7245   -2.3806   -0.0737 C   0  0  0  0  0  0
   -3.8519   -2.4971   -0.9033 C   0  0  0  0  0  0
   -4.6114   -3.6652   -0.9079 C   0  0  0  0  0  0
   -4.2597   -4.7316   -0.0829 C   0  0  0  0  0  0
   -3.1441   -4.6408    0.7570 C   0  0  0  0  0  0
   -2.3865   -3.4631    0.7573 C   0  0  0  0  0  0
   -2.7566   -5.8093    1.6623 C   0  0  0  0  0  0
   -1.4378   -5.8549    1.8606 F   0  0  0  0  0  0
   -3.3570   -5.6585    2.8424 F   0  0  0  0  0  0
   -3.1348   -6.9782    1.1415 F   0  0  0  0  0  0
    2.0306   -0.2094    1.5667 C   0  0  0  0  0  0
    3.4927   -0.3061    1.5957 N   0  0  0  0  0  0
    3.9292   -0.7616    2.9125 C   0  0  0  0  0  0
    4.1399    0.9703    1.2945 C   0  0  0  0  0  0
    1.8530    1.0167   -0.2220 H   0  0  0  0  0  0
    1.9166   -0.6714   -0.5439 H   0  0  0  0  0  0
   -4.1412   -1.6860   -1.5562 H   0  0  0  0  0  0
   -5.4741   -3.7443   -1.5529 H   0  0  0  0  0  0
   -4.8629   -5.6279   -0.0979 H   0  0  0  0  0  0
   -1.5334   -3.3857    1.4166 H   0  0  0  0  0  0
    1.6960    0.5710    2.2533 H   0  0  0  0  0  0
    1.6141   -1.1528    1.9246 H   0  0  0  0  0  0
    5.0140   -0.8740    2.9421 H   0  0  0  0  0  0
    3.4974   -1.7356    3.1471 H   0  0  0  0  0  0
    3.6380   -0.0624    3.6988 H   0  0  0  0  0  0
    5.2249    0.8768    1.3609 H   0  0  0  0  0  0
    3.8252    1.7537    1.9862 H   0  0  0  0  0  0
    3.9144    1.3000    0.2808 H   0  0  0  0  0  0
  1  6  1  0  0  0
  1  2  1  0  0  0
  1 10  2  0  0  0
  2  3  1  0  0  0
  2 11  1  0  0  0
  3  7  2  0  0  0
  3  4  1  0  0  0
  4  5  1  0  0  0
  4 12  1  0  0  0
  5  6  2  0  0  0
  6  8  1  0  0  0
  8  9  3  0  0  0
 11 22  1  0  0  0
 11 26  1  0  0  0
 11 27  1  0  0  0
 12 13  2  0  0  0
 12 17  1  0  0  0
 13 14  1  0  0  0
 13 28  1  0  0  0
 14 15  2  0  0  0
 14 29  1  0  0  0
 15 16  1  0  0  0
 15 30  1  0  0  0
 16 17  2  0  0  0
 16 18  1  0  0  0
 17 31  1  0  0  0
 18 19  1  0  0  0
 18 20  1  0  0  0
 18 21  1  0  0  0
 22 23  1  0  0  0
 22 32  1  0  0  0
 22 33  1  0  0  0
 23 24  1  0  0  0
 23 25  1  0  0  0
 24 34  1  0  0  0
 24 35  1  0  0  0
 24 36  1  0  0  0
 25 37  1  0  0  0
 25 38  1  0  0  0
 25 39  1  0  0  0
M  END
> <chembl_id>
CHEMBL1082524

> <chembl_pref_name>
None

> <s_m_source_file>
sdf/inactives_sanitized.sdf

> <i_m_source_file_index>
49

> <i_lp_mmshare_version>
49012

> <i_m_ct_stereo_status>
1

> <i_f3d_flags>
0

> <s_epik_input>
W0NIM11OKFtDSDNdKVtDSDJdW0NIMl1uKGMxPU8pYyg9TyluKG5jMUMjTiktYzJbY0hdW2NIXVtjSF1jKFtjSF0yKUMoRikoRilG

> <s_epik_cmdline>
J2VwaWtfcHl0aG9uJywgJy1waHQnLCAnMC41JywgJy1waCcsICc3LjUnLCAnLW50JywgJy1tYScsICcyMDAnLCAnLWltYWUnLCAnPGluZmlsZS5tYWU+JywgJy1vbWFlJywgJzxvdXRmaWxlLm1hZT4n

> <r_epik_Ionization_Penalty>
  0.1987

> <r_epik_Ionization_Penalty_Charging>
  0.0000

> <r_epik_Ionization_Penalty_Neutral>
  0.1987

> <r_epik_State_Penalty>
  0.1885

> <r_epik_Charging_Adjusted_Penalty>
0.188457427491873

> <i_epik_Tot_Q>
0

> <i_epik_Tot_abs_Q>
0

> <s_lp_Force_Field>
OPLS3e

> <r_lp_Energy>
60.905331

> <b_lp_Chiralities_Consistent>
1

> <s_lp_Variant>
sdf/inactives_sanitized.sdf:49-1

$$$$
sdf/inactives_sanitized.sdf:50
                    3D
 Schrodinger Suite 2020-1.
 70 74  0  0  1  0            999 V2000
   -3.4431    1.6931    0.7638 N   0  0  0  0  0  0
   -4.5095    0.9320    1.1295 C   0  0  0  0  0  0
   -4.5293   -0.3962    1.4112 N   0  0  0  0  0  0
   -3.3440   -1.0530    1.3206 C   0  0  0  0  0  0
   -2.2942    1.0030    0.6786 C   0  0  0  0  0  0
   -2.1656   -0.3841    0.9498 C   0  0  0  0  0  0
   -0.7944   -0.7156    0.7617 C   0  0  0  0  0  0
   -0.1241    0.4386    0.3768 C   0  0  0  0  0  0
   -1.0404    1.4864    0.3235 N   0  0  0  0  0  0
    1.3562    0.6369    0.0693 C   0  0  0  0  0  0
    2.0601   -0.6059    0.0056 O   0  0  0  0  0  0
   -5.7824    1.6260    1.2268 C   0  0  0  0  0  0
   -6.7963    2.1795    1.3038 N   0  0  0  0  0  0
   -0.7509    2.8849   -0.0314 C   0  0  0  0  0  0
   -1.4548    3.3218   -1.3401 C   0  0  0  0  0  0
   -1.0514    2.5436   -2.6182 C   0  0  0  0  0  0
    1.9109   -1.4377   -1.0919 C   0  0  0  0  0  0
    2.6330   -2.6325   -1.0955 C   0  0  0  0  0  0
    2.5411   -3.5176   -2.1699 C   0  0  0  0  0  0
    1.7162   -3.2489   -3.2766 C   0  0  0  0  0  0
    1.0028   -2.0389   -3.2646 C   0  0  0  0  0  0
    1.0924   -1.1524   -2.1935 C   0  0  0  0  0  0
    1.6398   -4.1222   -4.3694 N   0  0  0  0  0  0
    2.5113   -5.3100   -4.4701 C   0  0  0  0  0  0
    2.6308   -5.9575   -5.8677 C   0  0  0  0  0  0
    1.2880   -6.1457   -6.4247 N   0  0  0  0  0  0
    0.4820   -4.9244   -6.5174 C   0  0  0  0  0  0
    0.3737   -4.2916   -5.1123 C   0  0  0  0  0  0
    0.7918   -7.3902   -6.6566 C   0  0  0  0  0  0
   -0.5906   -7.5427   -7.2997 C   0  0  0  0  0  0
    1.4372   -8.4194   -6.4500 O   0  0  0  0  0  0
   -2.0801    2.7568   -3.7529 C   0  0  0  0  0  0
   -1.7274    1.9159   -4.9966 C   0  0  0  0  0  0
   -0.3024    2.2267   -5.5029 C   0  0  0  0  0  0
    0.7554    2.1364   -4.3821 C   0  0  0  0  0  0
    0.3451    2.9588   -3.1425 C   0  0  0  0  0  0
    3.4343   -2.9428   -0.0499 F   0  0  0  0  0  0
   -3.3472   -2.1088    1.5474 H   0  0  0  0  0  0
   -0.3321   -1.6836    0.8895 H   0  0  0  0  0  0
    1.5495    1.2176   -0.8319 H   0  0  0  0  0  0
    1.8093    1.2081    0.8795 H   0  0  0  0  0  0
   -1.0766    3.5114    0.8001 H   0  0  0  0  0  0
    0.3249    3.0299   -0.1130 H   0  0  0  0  0  0
   -2.5334    3.2521   -1.1983 H   0  0  0  0  0  0
   -1.2686    4.3853   -1.4965 H   0  0  0  0  0  0
   -1.0359    1.4755   -2.3977 H   0  0  0  0  0  0
    3.1174   -4.4285   -2.1115 H   0  0  0  0  0  0
    0.3783   -1.7447   -4.0934 H   0  0  0  0  0  0
    0.5170   -0.2423   -2.2389 H   0  0  0  0  0  0
    3.5174   -5.0761   -4.1218 H   0  0  0  0  0  0
    2.0687   -6.0562   -3.8079 H   0  0  0  0  0  0
    3.1854   -5.2868   -6.5250 H   0  0  0  0  0  0
    3.2092   -6.8808   -5.8105 H   0  0  0  0  0  0
    0.9803   -4.2242   -7.1888 H   0  0  0  0  0  0
   -0.5146   -5.0861   -6.9258 H   0  0  0  0  0  0
   -0.2196   -4.9773   -4.5045 H   0  0  0  0  0  0
   -0.1862   -3.3637   -5.2019 H   0  0  0  0  0  0
   -1.3720   -7.2243   -6.6090 H   0  0  0  0  0  0
   -0.7797   -8.5845   -7.5613 H   0  0  0  0  0  0
   -0.6629   -6.9535   -8.2144 H   0  0  0  0  0  0
   -3.0789    2.4928   -3.4024 H   0  0  0  0  0  0
   -2.1467    3.8159   -4.0078 H   0  0  0  0  0  0
   -1.8054    0.8549   -4.7540 H   0  0  0  0  0  0
   -2.4521    2.1021   -5.7902 H   0  0  0  0  0  0
   -0.0408    1.5497   -6.3170 H   0  0  0  0  0  0
   -0.2863    3.2313   -5.9284 H   0  0  0  0  0  0
    0.8958    1.0926   -4.1021 H   0  0  0  0  0  0
    1.7205    2.4813   -4.7546 H   0  0  0  0  0  0
    0.3526    4.0250   -3.3757 H   0  0  0  0  0  0
    1.0946    2.8496   -2.3601 H   0  0  0  0  0  0
  1  2  2  0  0  0
  1  5  1  0  0  0
  2 12  1  0  0  0
  2  3  1  0  0  0
  3  4  2  0  0  0
  4  6  1  0  0  0
  4 38  1  0  0  0
  5  9  1  0  0  0
  5  6  2  0  0  0
  6  7  1  0  0  0
  7  8  2  0  0  0
  7 39  1  0  0  0
  8  9  1  0  0  0
  8 10  1  0  0  0
  9 14  1  0  0  0
 10 11  1  0  0  0
 10 40  1  0  0  0
 10 41  1  0  0  0
 11 17  1  0  0  0
 12 13  3  0  0  0
 14 15  1  0  0  0
 14 42  1  0  0  0
 14 43  1  0  0  0
 15 16  1  0  0  0
 15 44  1  0  0  0
 15 45  1  0  0  0
 16 32  1  0  0  0
 16 36  1  0  0  0
 16 46  1  0  0  0
 17 18  2  0  0  0
 17 22  1  0  0  0
 18 19  1  0  0  0
 18 37  1  0  0  0
 19 20  2  0  0  0
 19 47  1  0  0  0
 20 21  1  0  0  0
 20 23  1  0  0  0
 21 22  2  0  0  0
 21 48  1  0  0  0
 22 49  1  0  0  0
 23 24  1  0  0  0
 23 28  1  0  0  0
 24 25  1  0  0  0
 24 50  1  0  0  0
 24 51  1  0  0  0
 25 26  1  0  0  0
 25 52  1  0  0  0
 25 53  1  0  0  0
 26 27  1  0  0  0
 26 29  1  0  0  0
 27 28  1  0  0  0
 27 54  1  0  0  0
 27 55  1  0  0  0
 28 56  1  0  0  0
 28 57  1  0  0  0
 29 30  1  0  0  0
 29 31  2  0  0  0
 30 58  1  0  0  0
 30 59  1  0  0  0
 30 60  1  0  0  0
 32 33  1  0  0  0
 32 61  1  0  0  0
 32 62  1  0  0  0
 33 34  1  0  0  0
 33 63  1  0  0  0
 33 64  1  0  0  0
 34 35  1  0  0  0
 34 65  1  0  0  0
 34 66  1  0  0  0
 35 36  1  0  0  0
 35 67  1  0  0  0
 35 68  1  0  0  0
 36 69  1  0  0  0
 36 70  1  0  0  0
M  END
> <chembl_id>
CHEMBL494517

> <chembl_pref_name>
None

> <s_m_source_file>
sdf/inactives_sanitized.sdf

> <i_m_source_file_index>
50

> <i_lp_mmshare_version>
49012

> <i_m_ct_stereo_status>
1

> <i_f3d_flags>
0

> <s_epik_input>
W0NIMl0xW0NIMl1bQ0gyXVtDSDJdW0NIMl1bQ0hdMVtDSDJdW0NIMl1uMmMoW2NIXWMoYzIzKVtjSF1uYyhuMylDI04pW0NIMl1PYzRjKEYpW2NIXWMoW2NIXVtjSF00KU41W0NIMl1bQ0gyXU4oW0NIMl1bQ0gyXTUpQyg9TylbQ0gzXQ==

> <s_epik_cmdline>
J2VwaWtfcHl0aG9uJywgJy1waHQnLCAnMC41JywgJy1waCcsICc3LjUnLCAnLW50JywgJy1tYScsICcyMDAnLCAnLWltYWUnLCAnPGluZmlsZS5tYWU+JywgJy1vbWFlJywgJzxvdXRmaWxlLm1hZT4n

> <r_lp_tautomer_probability>
1

> <r_epik_Ionization_Penalty>
  0.0002

> <r_epik_Ionization_Penalty_Charging>
  0.0000

> <r_epik_Ionization_Penalty_Neutral>
  0.0002

> <r_epik_State_Penalty>
 -0.0000

> <r_epik_Charging_Adjusted_Penalty>
0

> <i_epik_Tot_Q>
0

> <i_epik_Tot_abs_Q>
0

> <s_lp_Force_Field>
OPLS3e

> <r_lp_Energy>
64.287408

> <b_lp_Chiralities_Consistent>
1

> <s_lp_Variant>
sdf/inactives_sanitized.sdf:50-1

$$$$
sdf/inactives_sanitized.sdf:51
                    3D
 Schrodinger Suite 2020-1.
 61 63  0  0  1  0            999 V2000
   -0.1472    0.3728   -0.0774 C   0  0  2  0  0  0
   -1.4124    1.6132    1.0649 N   0  0  0  0  0  0
   -0.6811    1.8254   -0.1027 C   0  0  0  0  0  0
   -0.9155    0.2339    1.2679 C   0  0  1  0  0  0
    1.3086    0.2712    0.0281 N   0  0  0  0  0  0
    2.1445    0.1368   -1.0156 C   0  0  0  0  0  0
    4.4282   -2.2484   -0.9316 C   0  0  0  0  0  0
    3.6526    0.1066   -0.6776 C   0  0  1  0  0  0
    4.3636   -0.9473   -1.4167 N   0  0  0  0  0  0
   -1.9160   -0.7355    1.2649 O   0  0  0  0  0  0
   -0.5636    2.7896   -0.8558 O   0  0  0  0  0  0
    1.7785    0.0846   -2.1910 O   0  0  0  0  0  0
    4.3724    1.4584   -0.9210 C   0  0  0  0  0  0
    3.9380   -2.6621    0.1227 O   0  0  0  0  0  0
    5.1141   -3.0048   -1.8103 O   0  0  0  0  0  0
   -1.4533   -2.0558    1.5318 C   0  0  0  0  0  0
    5.3166   -4.3923   -1.5740 C   0  0  0  0  0  0
    3.8181    2.6557   -0.1618 C   0  0  0  0  0  0
    6.1010   -4.9916   -2.7261 C   0  0  0  0  0  0
   -2.6094   -3.0616    1.3603 C   0  0  0  0  0  0
    2.8412    3.4868   -0.7513 C   0  0  0  0  0  0
    4.1478    2.8459    1.1969 C   0  0  0  0  0  0
    7.4973   -4.9982   -2.6873 C   0  0  0  0  0  0
    5.4242   -5.5325   -3.8219 C   0  0  0  0  0  0
   -2.1728   -4.4838    1.7548 C   0  0  0  0  0  0
   -3.1934   -3.0376   -0.0652 C   0  0  0  0  0  0
    6.1451   -6.0812   -4.8795 C   0  0  0  0  0  0
    8.2174   -5.5470   -3.7455 C   0  0  0  0  0  0
    3.5610    3.8788    1.9165 C   0  0  0  0  0  0
    2.2660    4.5137   -0.0148 C   0  0  0  0  0  0
    7.5381   -6.0860   -4.8363 C   0  0  0  0  0  0
    2.6284    4.7119    1.3114 C   0  0  0  0  0  0
   -0.4923   -0.2768   -0.8852 H   0  0  0  0  0  0
   -2.2967    2.0280    1.3201 H   0  0  0  0  0  0
   -0.3097    0.1190    2.1716 H   0  0  0  0  0  0
    1.6996    0.3514    0.9557 H   0  0  0  0  0  0
    3.7588   -0.0716    0.3967 H   0  0  0  0  0  0
    4.7620   -0.7286   -2.3181 H   0  0  0  0  0  0
    5.4252    1.3572   -0.6511 H   0  0  0  0  0  0
    4.3715    1.6953   -1.9868 H   0  0  0  0  0  0
   -0.6299   -2.3162    0.8625 H   0  0  0  0  0  0
   -1.0697   -2.1009    2.5531 H   0  0  0  0  0  0
    5.8607   -4.5479   -0.6406 H   0  0  0  0  0  0
    4.3606   -4.9098   -1.4736 H   0  0  0  0  0  0
   -3.4047   -2.7676    2.0472 H   0  0  0  0  0  0
    2.5334    3.3243   -1.7740 H   0  0  0  0  0  0
    4.8556    2.1894    1.6813 H   0  0  0  0  0  0
    8.0234   -4.5781   -1.8422 H   0  0  0  0  0  0
    4.3443   -5.5266   -3.8558 H   0  0  0  0  0  0
   -1.3764   -4.8513    1.1063 H   0  0  0  0  0  0
   -3.0047   -5.1859    1.6886 H   0  0  0  0  0  0
   -1.8048   -4.5147    2.7810 H   0  0  0  0  0  0
   -2.4438   -3.3129   -0.8082 H   0  0  0  0  0  0
   -3.5690   -2.0476   -0.3260 H   0  0  0  0  0  0
   -4.0271   -3.7339   -0.1621 H   0  0  0  0  0  0
    5.6271   -6.5001   -5.7298 H   0  0  0  0  0  0
    9.2972   -5.5542   -3.7210 H   0  0  0  0  0  0
    3.8242    4.0294    2.9531 H   0  0  0  0  0  0
    1.5246    5.1523   -0.4720 H   0  0  0  0  0  0
    8.0969   -6.5110   -5.6570 H   0  0  0  0  0  0
    2.1729    5.5104    1.8784 H   0  0  0  0  0  0
  1  3  1  0  0  0
  1  4  1  0  0  0
  1  5  1  0  0  0
  1 33  1  0  0  0
  2  4  1  0  0  0
  2  3  1  0  0  0
  2 34  1  0  0  0
  3 11  2  0  0  0
  4 10  1  0  0  0
  4 35  1  0  0  0
  5  6  1  0  0  0
  5 36  1  0  0  0
  6  8  1  0  0  0
  6 12  2  0  0  0
  7  9  1  0  0  0
  7 14  2  0  0  0
  7 15  1  0  0  0
  8  9  1  0  0  0
  8 13  1  0  0  0
  8 37  1  0  0  0
  9 38  1  0  0  0
 10 16  1  0  0  0
 13 18  1  0  0  0
 13 39  1  0  0  0
 13 40  1  0  0  0
 15 17  1  0  0  0
 16 20  1  0  0  0
 16 41  1  0  0  0
 16 42  1  0  0  0
 17 19  1  0  0  0
 17 43  1  0  0  0
 17 44  1  0  0  0
 18 21  2  0  0  0
 18 22  1  0  0  0
 19 23  2  0  0  0
 19 24  1  0  0  0
 20 25  1  0  0  0
 20 26  1  0  0  0
 20 45  1  0  0  0
 21 30  1  0  0  0
 21 46  1  0  0  0
 22 29  2  0  0  0
 22 47  1  0  0  0
 23 28  1  0  0  0
 23 48  1  0  0  0
 24 27  2  0  0  0
 24 49  1  0  0  0
 25 50  1  0  0  0
 25 51  1  0  0  0
 25 52  1  0  0  0
 26 53  1  0  0  0
 26 54  1  0  0  0
 26 55  1  0  0  0
 27 31  1  0  0  0
 27 56  1  0  0  0
 28 31  2  0  0  0
 28 57  1  0  0  0
 29 32  1  0  0  0
 29 58  1  0  0  0
 30 32  2  0  0  0
 30 59  1  0  0  0
 31 60  1  0  0  0
 32 61  1  0  0  0
M  END
> <chembl_id>
CHEMBL31363

> <chembl_pref_name>
None

> <i_m_ct_stereo_status>
1

> <s_m_source_file>
sdf/inactives_sanitized.sdf

> <i_m_source_file_index>
51

> <i_lp_mmshare_version>
49012

> <i_f3d_flags>
0

> <s_epik_input>
W0NIM11bQ0hdKFtDSDNdKVtDSDJdT1tDQEBIXTFbTkhdQyg9TylbQ0BIXTFbTkhdQyg9TylbQ0BIXShbQ0gyXWMyW2NIXVtjSF1bY0hdW2NIXVtjSF0yKVtOSF1DKD1PKU9bQ0gyXWMzW2NIXVtjSF1bY0hdW2NIXVtjSF0z

> <s_epik_cmdline>
J2VwaWtfcHl0aG9uJywgJy1waHQnLCAnMC41JywgJy1waCcsICc3LjUnLCAnLW50JywgJy1tYScsICcyMDAnLCAnLWltYWUnLCAnPGluZmlsZS5tYWU+JywgJy1vbWFlJywgJzxvdXRmaWxlLm1hZT4n

> <r_lp_tautomer_probability>
1

> <r_epik_Ionization_Penalty>
  0.0000

> <r_epik_Ionization_Penalty_Charging>
  0.0000

> <r_epik_Ionization_Penalty_Neutral>
  0.0000

> <r_epik_State_Penalty>
 -0.0000

> <r_epik_Charging_Adjusted_Penalty>
0

> <i_epik_Tot_Q>
0

> <i_epik_Tot_abs_Q>
0

> <s_epik_Chemistry_Notes>
This compound has an ester and may undergo hydrolysis at high or low pH. This compound contains an acetal/aminal-like group ( X-CH(R)-Y where X, Y are N, S, or O) that may be acid/base labile, releasing an aldehyde.

> <s_lp_Force_Field>
OPLS3e

> <r_lp_Energy>
35.431737

> <b_lp_Chiralities_Consistent>
1

> <s_lp_Variant>
sdf/inactives_sanitized.sdf:51-1

$$$$
sdf/inactives_sanitized.sdf:52
                    3D
 Schrodinger Suite 2020-1.
 26 28  0  0  1  0            999 V2000
   -2.0935    1.1942   -0.1429 C   0  0  0  0  0  0
   -2.7974    0.0199    0.1371 C   0  0  0  0  0  0
   -2.1120   -1.1618    0.3996 C   0  0  0  0  0  0
   -0.7189   -1.1792    0.3832 C   0  0  0  0  0  0
    0.0275   -0.0193    0.1068 C   0  0  0  0  0  0
   -0.6932    1.1617   -0.1528 C   0  0  0  0  0  0
    1.5335   -0.0408    0.0897 C   0  0  0  0  0  0
    2.1469   -1.2345    0.3608 N   0  0  0  0  0  0
    3.5342    1.1243   -0.2136 C   0  0  0  0  0  0
    2.1752    1.1319   -0.1956 N   0  0  0  0  0  0
    4.1786    2.3919   -0.5212 C   0  0  0  0  0  0
    4.6912    3.4007   -0.7660 N   0  0  0  0  0  0
   -2.8422    2.4940   -0.4346 C   0  0  0  0  0  0
   -4.0224    2.2571   -1.0106 F   0  0  0  0  0  0
   -3.0537    3.1376    0.7131 F   0  0  0  0  0  0
   -2.1434    3.2921   -1.2443 F   0  0  0  0  0  0
    4.3387   -2.2388    0.5651 N   0  5  0  0  0  0
    5.5152   -1.6698    0.4149 C   0  0  0  0  0  0
    5.5546   -0.3899    0.1138 N   0  0  0  0  0  0
    4.2375   -0.0615    0.0553 C   0  0  0  0  0  0
    3.4837   -1.2112    0.3361 C   0  0  0  0  0  0
   -3.8778    0.0181    0.1556 H   0  0  0  0  0  0
   -2.6600   -2.0670    0.6166 H   0  0  0  0  0  0
   -0.2251   -2.1170    0.5917 H   0  0  0  0  0  0
   -0.1625    2.0785   -0.3645 H   0  0  0  0  0  0
    6.4256   -2.2388    0.5355 H   0  0  0  0  0  0
  1  6  2  0  0  0
  1 13  1  0  0  0
  1  2  1  0  0  0
  2  3  2  0  0  0
  2 22  1  0  0  0
  3  4  1  0  0  0
  3 23  1  0  0  0
  4  5  2  0  0  0
  4 24  1  0  0  0
  5  6  1  0  0  0
  5  7  1  0  0  0
  6 25  1  0  0  0
  7 10  1  0  0  0
  7  8  2  0  0  0
  8 21  1  0  0  0
  9 10  2  0  0  0
  9 11  1  0  0  0
  9 20  1  0  0  0
 11 12  3  0  0  0
 13 14  1  0  0  0
 13 15  1  0  0  0
 13 16  1  0  0  0
 17 18  1  0  0  0
 17 21  1  0  0  0
 18 19  2  0  0  0
 18 26  1  0  0  0
 19 20  1  0  0  0
 20 21  2  0  0  0
M  CHG  1  17  -1
M  END
> <chembl_id>
CHEMBL1209453

> <chembl_pref_name>
None

> <s_m_source_file>
sdf/inactives_sanitized.sdf

> <i_m_source_file_index>
52

> <i_lp_mmshare_version>
49012

> <i_m_ct_stereo_status>
1

> <i_f3d_flags>
0

> <s_epik_input>
RkMoRikoRiljMVtjSF1bY0hdW2NIXWMoW2NIXTEpLWMobmMyQyNOKW5jKGMyMylbbkhdW2NIXW4z

> <s_epik_cmdline>
J2VwaWtfcHl0aG9uJywgJy1waHQnLCAnMC41JywgJy1waCcsICc3LjUnLCAnLW50JywgJy1tYScsICcyMDAnLCAnLWltYWUnLCAnPGluZmlsZS5tYWU+JywgJy1vbWFlJywgJzxvdXRmaWxlLm1hZT4n

> <r_lp_tautomer_probability>
1

> <r_epik_Ionization_Penalty>
  0.1883

> <r_epik_Ionization_Penalty_Charging>
  0.1783

> <r_epik_Ionization_Penalty_Neutral>
  0.0100

> <r_epik_State_Penalty>
 -0.0000

> <r_epik_Charging_Adjusted_Penalty>
0.178331012777011

> <i_epik_Tot_Q>
-1

> <i_epik_Tot_abs_Q>
1

> <s_lp_Force_Field>
OPLS3e

> <r_lp_Energy>
30.709113

> <b_lp_Chiralities_Consistent>
1

> <s_lp_Variant>
sdf/inactives_sanitized.sdf:52-1

$$$$
sdf/inactives_sanitized.sdf:53
                    3D
 Schrodinger Suite 2020-1.
 46 48  0  0  1  0            999 V2000
   -0.6559    1.2126    0.3506 C   0  0  0  0  0  0
   -0.0164    0.0078    0.1064 N   0  0  0  0  0  0
   -0.6045   -1.2177   -0.1895 C   0  0  0  0  0  0
   -1.9893   -1.1720   -0.0557 N   0  0  0  0  0  0
   -2.7390    0.0052    0.0295 N   0  0  0  0  0  0
   -2.1103    1.0989    0.2437 C   0  0  0  0  0  0
    0.0271   -2.2355   -0.4943 O   0  0  0  0  0  0
   -2.9139    2.2956    0.3785 C   0  0  0  0  0  0
   -3.5899    3.2307    0.4733 N   0  0  0  0  0  0
   -0.0906    2.2754    0.6225 O   0  0  0  0  0  0
    1.4663    0.0367    0.1502 C   0  0  0  0  0  0
   -2.7722   -2.3610   -0.0832 C   0  0  0  0  0  0
   -3.9483   -2.4234   -0.8496 C   0  0  0  0  0  0
   -4.7232   -3.5812   -0.8703 C   0  0  0  0  0  0
   -4.3404   -4.6932   -0.1233 C   0  0  0  0  0  0
   -3.1777   -4.6573    0.6548 C   0  0  0  0  0  0
   -2.4042   -3.4905    0.6698 C   0  0  0  0  0  0
   -2.7448   -5.8643    1.4858 C   0  0  0  0  0  0
   -2.3945   -5.4815    2.7147 F   0  0  0  0  0  0
   -3.7146   -6.7741    1.5981 F   0  0  0  0  0  0
   -1.6953   -6.4423    0.9021 F   0  0  0  0  0  0
    2.0296   -0.2690    1.5569 C   0  0  0  0  0  0
    3.4956   -0.2967    1.5825 N   0  0  0  0  0  0
    3.9655   -0.9190    2.8304 C   0  0  0  0  0  0
    5.5042   -1.0134    2.8952 C   0  0  0  0  0  0
    6.1723    0.3509    2.6769 C   0  0  0  0  0  0
    5.6340    0.9958    1.3922 C   0  0  0  0  0  0
    4.0915    1.0330    1.3610 C   0  0  0  0  0  0
    1.8279    1.0037   -0.2004 H   0  0  0  0  0  0
    1.8866   -0.6751   -0.5630 H   0  0  0  0  0  0
   -4.2653   -1.5780   -1.4434 H   0  0  0  0  0  0
   -5.6222   -3.6173   -1.4679 H   0  0  0  0  0  0
   -4.9551   -5.5810   -0.1556 H   0  0  0  0  0  0
   -1.5130   -3.4639    1.2811 H   0  0  0  0  0  0
    1.6637    0.4594    2.2830 H   0  0  0  0  0  0
    1.6538   -1.2467    1.8641 H   0  0  0  0  0  0
    3.5790   -0.3604    3.6851 H   0  0  0  0  0  0
    3.5464   -1.9237    2.9047 H   0  0  0  0  0  0
    5.7986   -1.4063    3.8691 H   0  0  0  0  0  0
    5.8607   -1.7482    2.1715 H   0  0  0  0  0  0
    5.9664    1.0013    3.5287 H   0  0  0  0  0  0
    7.2561    0.2404    2.6233 H   0  0  0  0  0  0
    6.0177    2.0134    1.3120 H   0  0  0  0  0  0
    6.0082    0.4804    0.5063 H   0  0  0  0  0  0
    3.7759    1.4246    0.3947 H   0  0  0  0  0  0
    3.7118    1.7288    2.1117 H   0  0  0  0  0  0
  1 10  2  0  0  0
  1  6  1  0  0  0
  1  2  1  0  0  0
  2  3  1  0  0  0
  2 11  1  0  0  0
  3  7  2  0  0  0
  3  4  1  0  0  0
  4  5  1  0  0  0
  4 12  1  0  0  0
  5  6  2  0  0  0
  6  8  1  0  0  0
  8  9  3  0  0  0
 11 22  1  0  0  0
 11 29  1  0  0  0
 11 30  1  0  0  0
 12 17  2  0  0  0
 12 13  1  0  0  0
 13 14  2  0  0  0
 13 31  1  0  0  0
 14 15  1  0  0  0
 14 32  1  0  0  0
 15 16  2  0  0  0
 15 33  1  0  0  0
 16 17  1  0  0  0
 16 18  1  0  0  0
 17 34  1  0  0  0
 18 19  1  0  0  0
 18 20  1  0  0  0
 18 21  1  0  0  0
 22 23  1  0  0  0
 22 35  1  0  0  0
 22 36  1  0  0  0
 23 24  1  0  0  0
 23 28  1  0  0  0
 24 25  1  0  0  0
 24 37  1  0  0  0
 24 38  1  0  0  0
 25 26  1  0  0  0
 25 39  1  0  0  0
 25 40  1  0  0  0
 26 27  1  0  0  0
 26 41  1  0  0  0
 26 42  1  0  0  0
 27 28  1  0  0  0
 27 43  1  0  0  0
 27 44  1  0  0  0
 28 45  1  0  0  0
 28 46  1  0  0  0
M  END
> <chembl_id>
CHEMBL1082523

> <chembl_pref_name>
None

> <s_m_source_file>
sdf/inactives_sanitized.sdf

> <i_m_source_file_index>
53

> <i_lp_mmshare_version>
49012

> <i_m_ct_stereo_status>
1

> <i_f3d_flags>
0

> <s_epik_input>
W0NIMl0xW0NIMl1bQ0gyXVtDSDJdW0NIMl1OMVtDSDJdW0NIMl1uKGMyPU8pYyg9TyluKG5jMkMjTiktYzNbY0hdW2NIXVtjSF1jKFtjSF0zKUMoRikoRilG

> <s_epik_cmdline>
J2VwaWtfcHl0aG9uJywgJy1waHQnLCAnMC41JywgJy1waCcsICc3LjUnLCAnLW50JywgJy1tYScsICcyMDAnLCAnLWltYWUnLCAnPGluZmlsZS5tYWU+JywgJy1vbWFlJywgJzxvdXRmaWxlLm1hZT4n

> <r_epik_Ionization_Penalty>
  0.3538

> <r_epik_Ionization_Penalty_Charging>
  0.0000

> <r_epik_Ionization_Penalty_Neutral>
  0.3538

> <r_epik_State_Penalty>
  0.3502

> <r_epik_Charging_Adjusted_Penalty>
0.350244350872081

> <i_epik_Tot_Q>
0

> <i_epik_Tot_abs_Q>
0

> <s_lp_Force_Field>
OPLS3e

> <r_lp_Energy>
61.600572

> <b_lp_Chiralities_Consistent>
1

> <s_lp_Variant>
sdf/inactives_sanitized.sdf:53-1

$$$$
sdf/inactives_sanitized.sdf:53
                    3D
 Schrodinger Suite 2020-1.
 47 49  0  0  1  0            999 V2000
   -0.7237    1.1907   -0.1006 C   0  0  0  0  0  0
   -0.0641   -0.0245   -0.0100 N   0  0  0  0  0  0
   -0.6315   -1.2880    0.1142 C   0  0  0  0  0  0
   -2.0112   -1.2489   -0.0500 N   0  0  0  0  0  0
   -2.7883   -0.0893   -0.0187 N   0  0  0  0  0  0
   -2.1790    1.0353   -0.0669 C   0  0  0  0  0  0
    0.0132   -2.3232    0.3175 O   0  0  0  0  0  0
   -3.0056    2.2236   -0.0729 C   0  0  0  0  0  0
   -3.6737    3.1682   -0.0362 N   0  0  0  0  0  0
   -0.1720    2.2917   -0.1805 O   0  0  0  0  0  0
    1.4175    0.0372    0.0108 C   0  0  0  0  0  0
   -2.7640   -2.4473   -0.0549 C   0  0  0  0  0  0
   -2.5148   -3.4404   -1.0139 C   0  0  0  0  0  0
   -3.2622   -4.6167   -1.0196 C   0  0  0  0  0  0
   -4.2638   -4.8138   -0.0703 C   0  0  0  0  0  0
   -4.5306   -3.8357    0.8952 C   0  0  0  0  0  0
   -3.7783   -2.6546    0.8933 C   0  0  0  0  0  0
   -5.6255   -4.0552    1.9382 C   0  0  0  0  0  0
   -5.3550   -3.4098    3.0745 F   0  0  0  0  0  0
   -6.7795   -3.5954    1.4555 F   0  0  0  0  0  0
   -5.7718   -5.3500    2.2255 F   0  0  0  0  0  0
    1.9910    0.2150    1.4339 C   0  0  0  0  0  0
    3.5370    0.1532    1.4231 N   0  3  0  0  0  0
    4.0564   -0.0328    2.8694 C   0  0  0  0  0  0
    5.5895   -0.1588    2.8427 C   0  0  0  0  0  0
    6.2516    1.0492    2.1602 C   0  0  0  0  0  0
    5.6818    1.2854    0.7519 C   0  0  0  0  0  0
    4.1486    1.4144    0.7629 C   0  0  0  0  0  0
    1.7623    0.8416   -0.6398 H   0  0  0  0  0  0
    1.8434   -0.8631   -0.4371 H   0  0  0  0  0  0
   -1.7446   -3.3028   -1.7593 H   0  0  0  0  0  0
   -3.0659   -5.3772   -1.7613 H   0  0  0  0  0  0
   -4.8341   -5.7314   -0.0913 H   0  0  0  0  0  0
   -3.9789   -1.8952    1.6361 H   0  0  0  0  0  0
    1.7129    1.1640    1.8966 H   0  0  0  0  0  0
    1.6641   -0.6038    2.0775 H   0  0  0  0  0  0
    3.7211    0.8317    3.4455 H   0  0  0  0  0  0
    3.5914   -0.9356    3.2679 H   0  0  0  0  0  0
    5.9663   -0.2593    3.8612 H   0  0  0  0  0  0
    5.8710   -1.0763    2.3235 H   0  0  0  0  0  0
    6.1007    1.9416    2.7701 H   0  0  0  0  0  0
    7.3307    0.8991    2.1041 H   0  0  0  0  0  0
    6.1211    2.1873    0.3238 H   0  0  0  0  0  0
    5.9730    0.4654    0.0938 H   0  0  0  0  0  0
    3.7591    1.4854   -0.2517 H   0  0  0  0  0  0
    3.8099    2.2761    1.3410 H   0  0  0  0  0  0
    3.8241   -0.6568    0.8916 H   0  0  0  0  0  0
  1 10  2  0  0  0
  1  6  1  0  0  0
  1  2  1  0  0  0
  2  3  1  0  0  0
  2 11  1  0  0  0
  3  7  2  0  0  0
  3  4  1  0  0  0
  4  5  1  0  0  0
  4 12  1  0  0  0
  5  6  2  0  0  0
  6  8  1  0  0  0
  8  9  3  0  0  0
 11 22  1  0  0  0
 11 29  1  0  0  0
 11 30  1  0  0  0
 12 17  2  0  0  0
 12 13  1  0  0  0
 13 14  2  0  0  0
 13 31  1  0  0  0
 14 15  1  0  0  0
 14 32  1  0  0  0
 15 16  2  0  0  0
 15 33  1  0  0  0
 16 17  1  0  0  0
 16 18  1  0  0  0
 17 34  1  0  0  0
 18 19  1  0  0  0
 18 20  1  0  0  0
 18 21  1  0  0  0
 22 23  1  0  0  0
 22 35  1  0  0  0
 22 36  1  0  0  0
 23 24  1  0  0  0
 23 28  1  0  0  0
 23 47  1  0  0  0
 24 25  1  0  0  0
 24 37  1  0  0  0
 24 38  1  0  0  0
 25 26  1  0  0  0
 25 39  1  0  0  0
 25 40  1  0  0  0
 26 27  1  0  0  0
 26 41  1  0  0  0
 26 42  1  0  0  0
 27 28  1  0  0  0
 27 43  1  0  0  0
 27 44  1  0  0  0
 28 45  1  0  0  0
 28 46  1  0  0  0
M  CHG  1  23   1
M  END
> <chembl_id>
CHEMBL1082523

> <chembl_pref_name>
None

> <s_m_source_file>
sdf/inactives_sanitized.sdf

> <i_m_source_file_index>
53

> <i_lp_mmshare_version>
49012

> <i_m_ct_stereo_status>
1

> <i_f3d_flags>
0

> <s_epik_input>
W0NIMl0xW0NIMl1bQ0gyXVtDSDJdW0NIMl1OMVtDSDJdW0NIMl1uKGMyPU8pYyg9TyluKG5jMkMjTiktYzNbY0hdW2NIXVtjSF1jKFtjSF0zKUMoRikoRilG

> <s_epik_cmdline>
J2VwaWtfcHl0aG9uJywgJy1waHQnLCAnMC41JywgJy1waCcsICc3LjUnLCAnLW50JywgJy1tYScsICcyMDAnLCAnLWltYWUnLCAnPGluZmlsZS5tYWU+JywgJy1vbWFlJywgJzxvdXRmaWxlLm1hZT4n

> <r_epik_Ionization_Penalty>
  0.4736

> <r_epik_Ionization_Penalty_Charging>
  0.4736

> <r_epik_Ionization_Penalty_Neutral>
  0.0000

> <r_epik_State_Penalty>
  0.4780

> <r_epik_Charging_Adjusted_Penalty>
0.951542223133758

> <i_epik_Tot_Q>
1

> <i_epik_Tot_abs_Q>
1

> <s_lp_Force_Field>
OPLS3e

> <r_lp_Energy>
70.861992

> <b_lp_Chiralities_Consistent>
1

> <s_lp_Variant>
sdf/inactives_sanitized.sdf:53-2

$$$$
sdf/inactives_sanitized.sdf:54
                    3D
 Schrodinger Suite 2020-1.
 44 45  0  0  1  0            999 V2000
    0.1192   -0.0502   -0.0359 C   0  0  2  0  0  0
   -0.4462   -0.8943   -1.1998 C   0  0  0  0  0  0
   -0.4975    1.3558   -0.0520 C   0  0  0  0  0  0
   -0.3781   -4.4688   -2.8344 N   0  0  0  0  0  0
   -0.1682    2.2810   -1.0529 C   0  0  0  0  0  0
   -0.7278    3.5671   -1.0775 C   0  0  0  0  0  0
   -1.1098   -3.6822   -2.4043 C   0  0  0  0  0  0
    1.6763   -0.0414   -0.0252 C   0  0  0  0  0  0
   -0.0288   -0.7339   -2.3482 O   0  0  0  0  0  0
   -1.0216    6.3792   -3.6119 N   0  0  0  0  0  0
   -0.3701    4.5396   -2.1529 C   0  0  0  0  0  0
   -1.4085   -1.7825   -0.8941 N   0  0  0  0  0  0
   -2.0418   -2.6810   -1.8558 C   0  0  0  0  0  0
   -1.2972    5.4773   -2.6352 C   0  0  0  0  0  0
   -1.4089    1.7287    0.9405 C   0  0  0  0  0  0
   -1.6340    3.9114   -0.0644 C   0  0  0  0  0  0
   -1.9731    3.0017    0.9354 C   0  0  0  0  0  0
    2.3428    0.7700    1.1168 C   0  0  0  0  0  0
    0.2232    6.3681   -4.1486 C   0  0  0  0  0  0
    0.9082    4.5589   -2.7343 C   0  0  0  0  0  0
    3.8718    0.8125    0.9415 C   0  0  0  0  0  0
    1.9710    0.2511    2.5198 C   0  0  0  0  0  0
    1.2143    5.4773   -3.7400 C   0  0  0  0  0  0
   -0.1946   -0.5385    0.8886 H   0  0  0  0  0  0
    0.5246    1.9853   -1.8270 H   0  0  0  0  0  0
    2.0369   -1.0709    0.0257 H   0  0  0  0  0  0
    2.0436    0.3412   -0.9795 H   0  0  0  0  0  0
   -1.6749   -1.8973    0.0729 H   0  0  0  0  0  0
   -2.4818   -2.1178   -2.6806 H   0  0  0  0  0  0
   -2.8548   -3.2130   -1.3622 H   0  0  0  0  0  0
   -2.3043    5.5151   -2.2467 H   0  0  0  0  0  0
   -1.6811    1.0349    1.7225 H   0  0  0  0  0  0
   -2.0790    4.8954   -0.0393 H   0  0  0  0  0  0
   -2.6725    3.2851    1.7080 H   0  0  0  0  0  0
    1.9927    1.8011    1.0491 H   0  0  0  0  0  0
    0.4202    7.0947   -4.9232 H   0  0  0  0  0  0
    1.6737    3.8707   -2.4068 H   0  0  0  0  0  0
    4.3090   -0.1846    1.0069 H   0  0  0  0  0  0
    4.3409    1.4307    1.7079 H   0  0  0  0  0  0
    4.1488    1.2329   -0.0261 H   0  0  0  0  0  0
    2.2537   -0.7947    2.6463 H   0  0  0  0  0  0
    0.9012    0.3334    2.7106 H   0  0  0  0  0  0
    2.4745    0.8253    3.2983 H   0  0  0  0  0  0
    2.1965    5.4979   -4.1889 H   0  0  0  0  0  0
  1  2  1  0  0  0
  1  3  1  0  0  0
  1  8  1  0  0  0
  1 24  1  0  0  0
  2  9  2  0  0  0
  2 12  1  0  0  0
  3  5  2  0  0  0
  3 15  1  0  0  0
  4  7  3  0  0  0
  5  6  1  0  0  0
  5 25  1  0  0  0
  6 11  1  0  0  0
  6 16  2  0  0  0
  7 13  1  0  0  0
  8 18  1  0  0  0
  8 26  1  0  0  0
  8 27  1  0  0  0
 10 14  2  0  0  0
 10 19  1  0  0  0
 11 14  1  0  0  0
 11 20  2  0  0  0
 12 13  1  0  0  0
 12 28  1  0  0  0
 13 29  1  0  0  0
 13 30  1  0  0  0
 14 31  1  0  0  0
 15 17  2  0  0  0
 15 32  1  0  0  0
 16 17  1  0  0  0
 16 33  1  0  0  0
 17 34  1  0  0  0
 18 21  1  0  0  0
 18 22  1  0  0  0
 18 35  1  0  0  0
 19 23  2  0  0  0
 19 36  1  0  0  0
 20 23  1  0  0  0
 20 37  1  0  0  0
 21 38  1  0  0  0
 21 39  1  0  0  0
 21 40  1  0  0  0
 22 41  1  0  0  0
 22 42  1  0  0  0
 22 43  1  0  0  0
 23 44  1  0  0  0
M  END
> <chembl_id>
CHEMBL123592

> <chembl_pref_name>
None

> <s_m_source_file>
sdf/inactives_sanitized.sdf

> <i_m_source_file_index>
54

> <i_lp_mmshare_version>
49012

> <i_m_ct_stereo_status>
1

> <i_f3d_flags>
0

> <s_epik_input>
TiNDW0NIMl1bTkhdQyg9TylbQ0BASF0oW0NIMl1bQ0hdKFtDSDNdKVtDSDNdKWMxW2NIXWMoW2NIXVtjSF1bY0hdMSktYzJbY0hdbltjSF1bY0hdW2NIXTI=

> <s_epik_cmdline>
J2VwaWtfcHl0aG9uJywgJy1waHQnLCAnMC41JywgJy1waCcsICc3LjUnLCAnLW50JywgJy1tYScsICcyMDAnLCAnLWltYWUnLCAnPGluZmlsZS5tYWU+JywgJy1vbWFlJywgJzxvdXRmaWxlLm1hZT4n

> <r_lp_tautomer_probability>
1

> <r_epik_Ionization_Penalty>
  0.0015

> <r_epik_Ionization_Penalty_Charging>
  0.0000

> <r_epik_Ionization_Penalty_Neutral>
  0.0015

> <r_epik_State_Penalty>
 -0.0000

> <r_epik_Charging_Adjusted_Penalty>
0

> <i_epik_Tot_Q>
0

> <i_epik_Tot_abs_Q>
0

> <s_lp_Force_Field>
OPLS3e

> <r_lp_Energy>
29.486079

> <b_lp_Chiralities_Consistent>
1

> <s_lp_Variant>
sdf/inactives_sanitized.sdf:54-1

$$$$
sdf/inactives_sanitized.sdf:55
                    3D
 Schrodinger Suite 2020-1.
 43 43  0  0  1  0            999 V2000
   -0.6011    0.9459   -0.1599 C   0  0  0  0  0  0
    0.0263   -0.2122   -0.6027 N   0  0  0  0  0  0
   -0.0475    1.9589    0.2760 O   0  0  0  0  0  0
    2.5236   -2.3482   -1.4129 O   0  0  0  0  0  0
   -1.9340    0.7846   -0.2708 O   0  0  0  0  0  0
    1.8051   -1.3614   -1.5713 C   0  0  0  0  0  0
    1.4806   -0.3592   -0.4800 C   0  0  2  0  0  0
   -6.7426    1.9088    0.1995 C   0  0  0  0  0  0
   -2.8299    1.8168    0.1226 C   0  0  0  0  0  0
   -5.3092    2.3972    0.3496 C   0  0  0  0  0  0
   -7.4146    2.0785   -1.0144 C   0  0  0  0  0  0
   -7.3828    1.2846    1.2739 C   0  0  0  0  0  0
    1.9373   -0.7936    0.9421 C   0  0  0  0  0  0
   -4.2757    1.3332   -0.0582 C   0  0  0  0  0  0
    3.8517   -1.0663    2.6297 C   0  0  0  0  0  0
    3.4584   -0.7002    1.1879 C   0  0  0  0  0  0
    5.3643   -0.9862    2.8759 C   0  0  0  0  0  0
   -8.7243    1.6259   -1.1528 C   0  0  0  0  0  0
   -8.6924    0.8324    1.1349 C   0  0  0  0  0  0
   -9.3570    1.0052   -0.0775 C   0  0  0  0  0  0
   -0.5303   -1.0464   -0.7197 H   0  0  0  0  0  0
    1.3588   -1.1456   -2.5432 H   0  0  0  0  0  0
    1.9716    0.5788   -0.7500 H   0  0  0  0  0  0
   -2.6538    2.0831    1.1664 H   0  0  0  0  0  0
   -2.6532    2.7086   -0.4810 H   0  0  0  0  0  0
   -5.1754    3.3017   -0.2466 H   0  0  0  0  0  0
   -5.1445    2.7068    1.3833 H   0  0  0  0  0  0
   -6.9237    2.5574   -1.8493 H   0  0  0  0  0  0
   -6.8675    1.1480    2.2136 H   0  0  0  0  0  0
    1.4429   -0.1502    1.6720 H   0  0  0  0  0  0
    1.5749   -1.7993    1.1645 H   0  0  0  0  0  0
   -4.4295    0.4303    0.5352 H   0  0  0  0  0  0
   -4.4355    1.0511   -1.1002 H   0  0  0  0  0  0
    3.3409   -0.4024    3.3287 H   0  0  0  0  0  0
    3.5062   -2.0754    2.8588 H   0  0  0  0  0  0
    3.7969    0.3140    0.9708 H   0  0  0  0  0  0
    3.9913   -1.3562    0.4992 H   0  0  0  0  0  0
    5.6048   -1.2437    3.9076 H   0  0  0  0  0  0
    5.7436    0.0189    2.6890 H   0  0  0  0  0  0
    5.9074   -1.6752    2.2282 H   0  0  0  0  0  0
   -9.2471    1.7548   -2.0890 H   0  0  0  0  0  0
   -9.1902    0.3491    1.9627 H   0  0  0  0  0  0
  -10.3727    0.6538   -0.1849 H   0  0  0  0  0  0
  1  2  1  0  0  0
  1  3  2  0  0  0
  1  5  1  0  0  0
  2  7  1  0  0  0
  2 21  1  0  0  0
  4  6  2  0  0  0
  5  9  1  0  0  0
  6  7  1  0  0  0
  6 22  1  0  0  0
  7 13  1  0  0  0
  7 23  1  0  0  0
  8 10  1  0  0  0
  8 11  2  0  0  0
  8 12  1  0  0  0
  9 14  1  0  0  0
  9 24  1  0  0  0
  9 25  1  0  0  0
 10 14  1  0  0  0
 10 26  1  0  0  0
 10 27  1  0  0  0
 11 18  1  0  0  0
 11 28  1  0  0  0
 12 19  2  0  0  0
 12 29  1  0  0  0
 13 16  1  0  0  0
 13 30  1  0  0  0
 13 31  1  0  0  0
 14 32  1  0  0  0
 14 33  1  0  0  0
 15 16  1  0  0  0
 15 17  1  0  0  0
 15 34  1  0  0  0
 15 35  1  0  0  0
 16 36  1  0  0  0
 16 37  1  0  0  0
 17 38  1  0  0  0
 17 39  1  0  0  0
 17 40  1  0  0  0
 18 20  2  0  0  0
 18 41  1  0  0  0
 19 20  1  0  0  0
 19 42  1  0  0  0
 20 43  1  0  0  0
M  END
> <chembl_id>
CHEMBL442755

> <chembl_pref_name>
None

> <i_m_ct_stereo_status>
1

> <s_m_source_file>
sdf/inactives_sanitized.sdf

> <i_m_source_file_index>
55

> <i_lp_mmshare_version>
49012

> <i_f3d_flags>
0

> <s_epik_input>
W0NIM11bQ0gyXVtDSDJdW0NIMl1bQ0BASF0oW0NIXT1PKVtOSF1DKD1PKU9bQ0gyXVtDSDJdW0NIMl1jMVtjSF1bY0hdW2NIXVtjSF1bY0hdMQ==

> <s_epik_cmdline>
J2VwaWtfcHl0aG9uJywgJy1waHQnLCAnMC41JywgJy1waCcsICc3LjUnLCAnLW50JywgJy1tYScsICcyMDAnLCAnLWltYWUnLCAnPGluZmlsZS5tYWU+JywgJy1vbWFlJywgJzxvdXRmaWxlLm1hZT4n

> <r_lp_tautomer_probability>
1

> <r_epik_Ionization_Penalty>
  0.0003

> <r_epik_Ionization_Penalty_Charging>
  0.0000

> <r_epik_Ionization_Penalty_Neutral>
  0.0003

> <r_epik_State_Penalty>
 -0.0000

> <r_epik_Charging_Adjusted_Penalty>
0

> <i_epik_Tot_Q>
0

> <i_epik_Tot_abs_Q>
0

> <s_epik_Chemistry_Notes>
This compound has an ester and may undergo hydrolysis at high or low pH.

> <s_lp_Force_Field>
OPLS3e

> <r_lp_Energy>
23.154416

> <b_lp_Chiralities_Consistent>
1

> <s_lp_Variant>
sdf/inactives_sanitized.sdf:55-1

$$$$
sdf/inactives_sanitized.sdf:56
                    3D
 Schrodinger Suite 2020-1.
 49 48  0  0  1  0            999 V2000
   -1.2887    4.4306    1.8259 C   0  0  0  0  0  0
   -0.4568    2.1732    1.1870 C   0  0  0  0  0  0
   -0.4899    1.3636    0.0520 N   0  0  0  0  0  0
    0.0622   -0.0091    0.0517 C   0  0  2  0  0  0
    1.5875    0.0410    0.2397 C   0  0  0  0  0  0
    2.2184   -1.1596    1.0628 C   0  0  0  0  0  0
    2.3022    0.9527   -0.1914 O   0  0  0  0  0  0
    1.5175   -2.0356    1.5723 O   0  0  0  0  0  0
    3.5621   -1.0908    1.1236 N   0  0  0  0  0  0
   -1.1120    3.3331    0.9100 O   0  0  0  0  0  0
    0.0605    1.8912    2.2699 O   0  0  0  0  0  0
   -0.3082   -0.7223   -1.2780 C   0  0  0  0  0  0
    0.0058   -2.2331   -1.3408 C   0  0  0  0  0  0
   -0.5513   -2.9104   -2.6048 C   0  0  0  0  0  0
   -0.2451   -4.4133   -2.6596 C   0  0  0  0  0  0
    0.0726    5.0315    2.2567 C   0  0  0  0  0  0
   -2.1236    4.0068    3.0596 C   0  0  0  0  0  0
   -2.0748    5.4829    1.0171 C   0  0  0  0  0  0
    4.4310   -2.0469    1.8116 C   0  0  0  0  0  0
    5.8323   -1.4491    2.0170 C   0  0  0  0  0  0
    4.4938   -3.4130    1.0993 C   0  0  0  0  0  0
   -1.1972    1.5715   -0.6374 H   0  0  0  0  0  0
   -0.4471   -0.5401    0.8593 H   0  0  0  0  0  0
    4.0221   -0.3119    0.6743 H   0  0  0  0  0  0
   -1.3798   -0.5948   -1.4425 H   0  0  0  0  0  0
    0.1687   -0.2141   -2.1190 H   0  0  0  0  0  0
    1.0847   -2.3880   -1.3093 H   0  0  0  0  0  0
   -0.4067   -2.7258   -0.4591 H   0  0  0  0  0  0
   -1.6314   -2.7654   -2.6536 H   0  0  0  0  0  0
   -0.1375   -2.4283   -3.4918 H   0  0  0  0  0  0
   -0.6507   -4.8606   -3.5675 H   0  0  0  0  0  0
   -0.6834   -4.9364   -1.8089 H   0  0  0  0  0  0
    0.8294   -4.5999   -2.6500 H   0  0  0  0  0  0
   -0.0619    5.9458    2.8359 H   0  0  0  0  0  0
    0.6870    5.2798    1.3903 H   0  0  0  0  0  0
    0.6508    4.3440    2.8739 H   0  0  0  0  0  0
   -1.5960    3.2911    3.6898 H   0  0  0  0  0  0
   -3.0630    3.5404    2.7595 H   0  0  0  0  0  0
   -2.3695    4.8650    3.6864 H   0  0  0  0  0  0
   -2.2746    6.3777    1.6084 H   0  0  0  0  0  0
   -3.0362    5.0924    0.6800 H   0  0  0  0  0  0
   -1.5263    5.7946    0.1269 H   0  0  0  0  0  0
    4.0155   -2.2115    2.8087 H   0  0  0  0  0  0
    6.4921   -2.1672    2.5051 H   0  0  0  0  0  0
    5.8015   -0.5632    2.6528 H   0  0  0  0  0  0
    6.3021   -1.1885    1.0675 H   0  0  0  0  0  0
    5.1863   -4.0837    1.6090 H   0  0  0  0  0  0
    4.8507   -3.3135    0.0735 H   0  0  0  0  0  0
    3.5242   -3.9120    1.0901 H   0  0  0  0  0  0
  1 10  1  0  0  0
  1 16  1  0  0  0
  1 17  1  0  0  0
  1 18  1  0  0  0
  2  3  1  0  0  0
  2 10  1  0  0  0
  2 11  2  0  0  0
  3  4  1  0  0  0
  3 22  1  0  0  0
  4 12  1  0  0  0
  4  5  1  0  0  0
  4 23  1  0  0  0
  5  7  2  0  0  0
  5  6  1  0  0  0
  6  8  2  0  0  0
  6  9  1  0  0  0
  9 19  1  0  0  0
  9 24  1  0  0  0
 12 13  1  0  0  0
 12 25  1  0  0  0
 12 26  1  0  0  0
 13 14  1  0  0  0
 13 27  1  0  0  0
 13 28  1  0  0  0
 14 15  1  0  0  0
 14 29  1  0  0  0
 14 30  1  0  0  0
 15 31  1  0  0  0
 15 32  1  0  0  0
 15 33  1  0  0  0
 16 34  1  0  0  0
 16 35  1  0  0  0
 16 36  1  0  0  0
 17 37  1  0  0  0
 17 38  1  0  0  0
 17 39  1  0  0  0
 18 40  1  0  0  0
 18 41  1  0  0  0
 18 42  1  0  0  0
 19 20  1  0  0  0
 19 21  1  0  0  0
 19 43  1  0  0  0
 20 44  1  0  0  0
 20 45  1  0  0  0
 20 46  1  0  0  0
 21 47  1  0  0  0
 21 48  1  0  0  0
 21 49  1  0  0  0
M  END
> <chembl_id>
CHEMBL159452

> <chembl_pref_name>
None

> <i_m_ct_stereo_status>
1

> <s_m_source_file>
sdf/inactives_sanitized.sdf

> <i_m_source_file_index>
56

> <i_lp_mmshare_version>
49012

> <i_f3d_flags>
0

> <s_epik_input>
W0NIM11DKFtDSDNdKShbQ0gzXSlPQyg9TylbTkhdW0NAQEhdKFtDSDJdW0NIMl1bQ0gyXVtDSDNdKUMoPU8pQyg9TylbTkhdW0NIXShbQ0gzXSlbQ0gzXQ==

> <s_epik_cmdline>
J2VwaWtfcHl0aG9uJywgJy1waHQnLCAnMC41JywgJy1waCcsICc3LjUnLCAnLW50JywgJy1tYScsICcyMDAnLCAnLWltYWUnLCAnPGluZmlsZS5tYWU+JywgJy1vbWFlJywgJzxvdXRmaWxlLm1hZT4n

> <r_lp_tautomer_probability>
1

> <r_epik_Ionization_Penalty>
  0.0000

> <r_epik_Ionization_Penalty_Charging>
  0.0000

> <r_epik_Ionization_Penalty_Neutral>
  0.0000

> <r_epik_State_Penalty>
 -0.0000

> <r_epik_Charging_Adjusted_Penalty>
0

> <i_epik_Tot_Q>
0

> <i_epik_Tot_abs_Q>
0

> <s_epik_Chemistry_Notes>
This compound has an ester and may undergo hydrolysis at high or low pH.

> <s_lp_Force_Field>
OPLS3e

> <r_lp_Energy>
14.329255

> <b_lp_Chiralities_Consistent>
1

> <s_lp_Variant>
sdf/inactives_sanitized.sdf:56-1

$$$$
sdf/inactives_sanitized.sdf:57
                    3D
 Schrodinger Suite 2020-1.
 49 51  0  0  1  0            999 V2000
    0.1157   -0.0412   -0.0386 C   0  0  2  0  0  0
   -0.4792   -0.8615   -1.2050 C   0  0  0  0  0  0
   -0.4708    1.3775   -0.0354 C   0  0  0  0  0  0
   -0.8983    6.2630   -3.6972 C   0  0  0  0  0  0
   -0.5258   -4.4112   -2.8879 N   0  0  0  0  0  0
   -0.2958    4.5737   -2.1022 C   0  0  0  0  0  0
   -1.6341    7.1535   -4.4525 N   0  0  0  0  0  0
   -0.1294    2.3052   -1.0298 C   0  0  0  0  0  0
   -1.2878    5.3684   -2.6952 C   0  0  0  0  0  0
   -0.6637    3.6010   -1.0349 C   0  0  0  0  0  0
   -1.2316   -3.6125   -2.4374 C   0  0  0  0  0  0
   -0.8121    7.8274   -5.3205 C   0  0  0  0  0  0
    0.4572    6.3881   -4.1219 C   0  0  0  0  0  0
    0.4838    7.3877   -5.1498 C   0  0  0  0  0  0
    1.6725   -0.0647   -0.0424 C   0  0  0  0  0  0
   -0.0644   -0.7053   -2.3548 O   0  0  0  0  0  0
    1.0367    4.6914   -2.5152 C   0  0  0  0  0  0
    1.4281    5.5831   -3.5118 C   0  0  0  0  0  0
   -1.4645   -1.7241   -0.8994 N   0  0  0  0  0  0
   -2.1312   -2.5959   -1.8633 C   0  0  0  0  0  0
   -1.3662    1.7601    0.9687 C   0  0  0  0  0  0
   -1.5547    3.9566   -0.0137 C   0  0  0  0  0  0
   -1.9039    3.0450    0.9809 C   0  0  0  0  0  0
    2.3646    0.7198    1.1029 C   0  0  0  0  0  0
    3.8917    0.7425    0.9088 C   0  0  0  0  0  0
    2.0010    0.1852    2.5024 C   0  0  0  0  0  0
   -0.2000   -0.5315    0.8843 H   0  0  0  0  0  0
   -2.6295    7.3185   -4.4097 H   0  0  0  0  0  0
    0.5529    2.0102   -1.8140 H   0  0  0  0  0  0
   -2.3221    5.2860   -2.3940 H   0  0  0  0  0  0
   -1.2269    8.5671   -5.9900 H   0  0  0  0  0  0
    1.3407    7.7449   -5.7015 H   0  0  0  0  0  0
    2.0124   -1.1018   -0.0061 H   0  0  0  0  0  0
    2.0384    0.3213   -0.9960 H   0  0  0  0  0  0
    1.7967    4.0801   -2.0500 H   0  0  0  0  0  0
    2.4652    5.6483   -3.8063 H   0  0  0  0  0  0
   -1.7286   -1.8373    0.0684 H   0  0  0  0  0  0
   -2.5683   -2.0123   -2.6752 H   0  0  0  0  0  0
   -2.9498   -3.1146   -1.3647 H   0  0  0  0  0  0
   -1.6463    1.0643    1.7461 H   0  0  0  0  0  0
   -1.9794    4.9496    0.0162 H   0  0  0  0  0  0
   -2.5915    3.3360    1.7614 H   0  0  0  0  0  0
    2.0295    1.7570    1.0545 H   0  0  0  0  0  0
    4.3147   -0.2622    0.9485 H   0  0  0  0  0  0
    4.3804    1.3386    1.6806 H   0  0  0  0  0  0
    4.1617    1.1776   -0.0542 H   0  0  0  0  0  0
    2.2705   -0.8662    2.6099 H   0  0  0  0  0  0
    0.9346    0.2786    2.7066 H   0  0  0  0  0  0
    2.5207    0.7411    3.2836 H   0  0  0  0  0  0
  1  2  1  0  0  0
  1  3  1  0  0  0
  1 15  1  0  0  0
  1 27  1  0  0  0
  2 16  2  0  0  0
  2 19  1  0  0  0
  3  8  2  0  0  0
  3 21  1  0  0  0
  4  9  2  0  0  0
  4  7  1  0  0  0
  4 13  1  0  0  0
  5 11  3  0  0  0
  6 10  1  0  0  0
  6  9  1  0  0  0
  6 17  2  0  0  0
  7 12  1  0  0  0
  7 28  1  0  0  0
  8 10  1  0  0  0
  8 29  1  0  0  0
  9 30  1  0  0  0
 10 22  2  0  0  0
 11 20  1  0  0  0
 12 14  2  0  0  0
 12 31  1  0  0  0
 13 18  2  0  0  0
 13 14  1  0  0  0
 14 32  1  0  0  0
 15 24  1  0  0  0
 15 33  1  0  0  0
 15 34  1  0  0  0
 17 18  1  0  0  0
 17 35  1  0  0  0
 18 36  1  0  0  0
 19 20  1  0  0  0
 19 37  1  0  0  0
 20 38  1  0  0  0
 20 39  1  0  0  0
 21 23  2  0  0  0
 21 40  1  0  0  0
 22 23  1  0  0  0
 22 41  1  0  0  0
 23 42  1  0  0  0
 24 25  1  0  0  0
 24 26  1  0  0  0
 24 43  1  0  0  0
 25 44  1  0  0  0
 25 45  1  0  0  0
 25 46  1  0  0  0
 26 47  1  0  0  0
 26 48  1  0  0  0
 26 49  1  0  0  0
M  END
> <chembl_id>
CHEMBL122318

> <chembl_pref_name>
None

> <s_m_source_file>
sdf/inactives_sanitized.sdf

> <i_m_source_file_index>
57

> <i_lp_mmshare_version>
49012

> <i_m_ct_stereo_status>
1

> <i_f3d_flags>
0

> <s_epik_input>
TiNDW0NIMl1bTkhdQyg9TylbQ0BASF0oW0NIMl1bQ0hdKFtDSDNdKVtDSDNdKWMxW2NIXWMoW2NIXVtjSF1bY0hdMSktYyhbY0hdMilbY0hdW2NIXWMoYzIzKVtjSF1bY0hdW25IXTM=

> <s_epik_cmdline>
J2VwaWtfcHl0aG9uJywgJy1waHQnLCAnMC41JywgJy1waCcsICc3LjUnLCAnLW50JywgJy1tYScsICcyMDAnLCAnLWltYWUnLCAnPGluZmlsZS5tYWU+JywgJy1vbWFlJywgJzxvdXRmaWxlLm1hZT4n

> <r_lp_tautomer_probability>
1

> <r_epik_Ionization_Penalty>
  0.0000

> <r_epik_Ionization_Penalty_Charging>
  0.0000

> <r_epik_Ionization_Penalty_Neutral>
  0.0000

> <r_epik_State_Penalty>
 -0.0000

> <r_epik_Charging_Adjusted_Penalty>
0

> <i_epik_Tot_Q>
0

> <i_epik_Tot_abs_Q>
0

> <s_lp_Force_Field>
OPLS3e

> <r_lp_Energy>
29.704062

> <b_lp_Chiralities_Consistent>
1

> <s_lp_Variant>
sdf/inactives_sanitized.sdf:57-1

$$$$
sdf/inactives_sanitized.sdf:58
                    3D
 Schrodinger Suite 2020-1.
 53 56  0  0  1  0            999 V2000
   -0.6501    2.4018    0.0015 N   0  0  0  0  0  0
   -1.6856    3.2813    0.0692 C   0  0  0  0  0  0
   -3.0136    3.0043    0.1348 N   0  0  0  0  0  0
   -3.3610    1.6911    0.1347 C   0  0  0  0  0  0
   -1.0404    1.1169    0.0015 C   0  0  0  0  0  0
   -2.3888    0.6790    0.0696 C   0  0  0  0  0  0
   -2.3623   -0.7460    0.0581 C   0  0  0  0  0  0
   -1.0357   -1.1458   -0.0173 C   0  0  0  0  0  0
   -0.2329   -0.0096   -0.0587 N   0  0  0  0  0  0
   -1.3250    4.6890    0.0708 C   0  0  0  0  0  0
   -1.0371    5.8102    0.0720 N   0  0  0  0  0  0
   -0.4650   -2.5571   -0.0379 C   0  0  0  0  0  0
    0.0697   -2.9919   -1.3994 C   0  0  0  0  0  0
    1.3481   -3.5494   -1.4980 C   0  0  0  0  0  0
    1.8396   -3.9516   -2.7370 C   0  0  0  0  0  0
    1.0501   -3.8027   -3.8761 C   0  0  0  0  0  0
   -0.2294   -3.2580   -3.7840 C   0  0  0  0  0  0
   -0.7211   -2.8554   -2.5452 C   0  0  0  0  0  0
    1.6609   -4.2985   -5.4125 Cl  0  0  0  0  0  0
    1.2313    0.0166   -0.0890 C   0  0  0  0  0  0
    1.8007    0.1171    1.3384 C   0  0  0  0  0  0
    3.3408    0.1600    1.3622 C   0  0  0  0  0  0
    3.9631    0.1431    2.7791 C   0  0  0  0  0  0
    3.6308    1.4122    3.6031 C   0  0  0  0  0  0
    4.2132    1.3273    5.0288 C   0  0  0  0  0  0
    5.7364    1.0775    5.0073 C   0  0  0  0  0  0
    6.1239   -0.1214    4.1150 C   0  0  0  0  0  0
    5.5013   -0.0055    2.7086 C   0  0  0  0  0  0
   -4.4147    1.4608    0.1903 H   0  0  0  0  0  0
   -3.2067   -1.4181    0.1036 H   0  0  0  0  0  0
    0.3009   -2.6751    0.7302 H   0  0  0  0  0  0
   -1.2542   -3.2618    0.2271 H   0  0  0  0  0  0
    1.9645   -3.6675   -0.6186 H   0  0  0  0  0  0
    2.8297   -4.3774   -2.8108 H   0  0  0  0  0  0
   -0.8407   -3.1472   -4.6679 H   0  0  0  0  0  0
   -1.7147   -2.4361   -2.4786 H   0  0  0  0  0  0
    1.6080   -0.8688   -0.5982 H   0  0  0  0  0  0
    1.5544    0.8654   -0.6940 H   0  0  0  0  0  0
    1.3990    1.0102    1.8180 H   0  0  0  0  0  0
    1.4557   -0.7332    1.9287 H   0  0  0  0  0  0
    3.7150   -0.7006    0.8050 H   0  0  0  0  0  0
    3.6882    1.0406    0.8192 H   0  0  0  0  0  0
    3.5736   -0.7220    3.3197 H   0  0  0  0  0  0
    4.0015    2.3002    3.0883 H   0  0  0  0  0  0
    2.5527    1.5584    3.6639 H   0  0  0  0  0  0
    3.9949    2.2454    5.5757 H   0  0  0  0  0  0
    3.7199    0.5224    5.5761 H   0  0  0  0  0  0
    6.2398    1.9732    4.6403 H   0  0  0  0  0  0
    6.1017    0.9196    6.0227 H   0  0  0  0  0  0
    7.2095   -0.1910    4.0375 H   0  0  0  0  0  0
    5.7916   -1.0481    4.5855 H   0  0  0  0  0  0
    5.7619   -0.8863    2.1199 H   0  0  0  0  0  0
    5.9363    0.8323    2.1608 H   0  0  0  0  0  0
  1  2  2  0  0  0
  1  5  1  0  0  0
  2  3  1  0  0  0
  2 10  1  0  0  0
  3  4  2  0  0  0
  4  6  1  0  0  0
  4 29  1  0  0  0
  5  9  1  0  0  0
  5  6  2  0  0  0
  6  7  1  0  0  0
  7  8  2  0  0  0
  7 30  1  0  0  0
  8  9  1  0  0  0
  8 12  1  0  0  0
  9 20  1  0  0  0
 10 11  3  0  0  0
 12 13  1  0  0  0
 12 31  1  0  0  0
 12 32  1  0  0  0
 13 14  2  0  0  0
 13 18  1  0  0  0
 14 15  1  0  0  0
 14 33  1  0  0  0
 15 16  2  0  0  0
 15 34  1  0  0  0
 16 17  1  0  0  0
 16 19  1  0  0  0
 17 18  2  0  0  0
 17 35  1  0  0  0
 18 36  1  0  0  0
 20 21  1  0  0  0
 20 37  1  0  0  0
 20 38  1  0  0  0
 21 22  1  0  0  0
 21 39  1  0  0  0
 21 40  1  0  0  0
 22 23  1  0  0  0
 22 41  1  0  0  0
 22 42  1  0  0  0
 23 24  1  0  0  0
 23 28  1  0  0  0
 23 43  1  0  0  0
 24 25  1  0  0  0
 24 44  1  0  0  0
 24 45  1  0  0  0
 25 26  1  0  0  0
 25 46  1  0  0  0
 25 47  1  0  0  0
 26 27  1  0  0  0
 26 48  1  0  0  0
 26 49  1  0  0  0
 27 28  1  0  0  0
 27 50  1  0  0  0
 27 51  1  0  0  0
 28 52  1  0  0  0
 28 53  1  0  0  0
M  END
> <chembl_id>
CHEMBL494886

> <chembl_pref_name>
None

> <s_m_source_file>
sdf/inactives_sanitized.sdf

> <i_m_source_file_index>
58

> <i_lp_mmshare_version>
49012

> <i_m_ct_stereo_status>
1

> <i_f3d_flags>
0

> <s_epik_input>
TiNDYyhuMSluW2NIXWMoYzEyKVtjSF1jKFtDSDJdYzNbY0hdW2NIXWMoQ2wpW2NIXVtjSF0zKW4yW0NIMl1bQ0gyXVtDSDJdW0NIXTRbQ0gyXVtDSDJdW0NIMl1bQ0gyXVtDSDJdNA==

> <s_epik_cmdline>
J2VwaWtfcHl0aG9uJywgJy1waHQnLCAnMC41JywgJy1waCcsICc3LjUnLCAnLW50JywgJy1tYScsICcyMDAnLCAnLWltYWUnLCAnPGluZmlsZS5tYWU+JywgJy1vbWFlJywgJzxvdXRmaWxlLm1hZT4n

> <r_lp_tautomer_probability>
1

> <r_epik_Ionization_Penalty>
  0.0000

> <r_epik_Ionization_Penalty_Charging>
  0.0000

> <r_epik_Ionization_Penalty_Neutral>
  0.0000

> <r_epik_State_Penalty>
 -0.0000

> <r_epik_Charging_Adjusted_Penalty>
0

> <i_epik_Tot_Q>
0

> <i_epik_Tot_abs_Q>
0

> <s_lp_Force_Field>
OPLS3e

> <r_lp_Energy>
35.997397

> <b_lp_Chiralities_Consistent>
1

> <s_lp_Variant>
sdf/inactives_sanitized.sdf:58-1

$$$$
sdf/inactives_sanitized.sdf:59
                    3D
 Schrodinger Suite 2020-1.
 50 50  0  0  1  0            999 V2000
   -2.4601    3.5549   -1.7254 C   0  0  0  0  0  0
   -1.1013    1.5304   -1.2278 C   0  0  0  0  0  0
   -0.6092    0.8995   -0.0923 N   0  0  0  0  0  0
    0.2303   -0.3055   -0.1976 C   0  0  2  0  0  0
   -0.2643   -1.2071    0.9333 C   0  0  0  0  0  0
   -1.7075   -1.8504    0.7345 C   0  0  0  0  0  0
    0.4066   -1.4760    1.9355 O   0  0  0  0  0  0
   -2.3235   -1.7001   -0.3214 O   0  0  0  0  0  0
   -2.1090   -2.5256    1.8354 N   0  0  0  0  0  0
   -1.7914    2.6364   -0.8405 O   0  0  0  0  0  0
   -0.9415    1.1637   -2.3936 O   0  0  0  0  0  0
    1.7479    0.0084   -0.0770 C   0  0  0  0  0  0
    2.3086    0.8499   -1.2416 C   0  0  0  0  0  0
    3.8312    1.0533   -1.1553 C   0  0  0  0  0  0
    4.3892    1.8820   -2.3204 C   0  0  0  0  0  0
   -3.5821    2.8516   -2.5289 C   0  0  0  0  0  0
   -1.4555    4.2564   -2.6725 C   0  0  0  0  0  0
   -3.0900    4.6020   -0.7842 C   0  0  0  0  0  0
   -3.3074   -3.2268    2.0683 C   0  0  0  0  0  0
   -3.4588   -3.7593    3.3520 C   0  0  0  0  0  0
   -4.6077   -4.4707    3.6867 C   0  0  0  0  0  0
   -5.6082   -4.6529    2.7358 C   0  0  0  0  0  0
   -5.4691   -4.1312    1.4525 C   0  0  0  0  0  0
   -4.3214   -3.4187    1.1142 C   0  0  0  0  0  0
   -0.6644    1.3748    0.7967 H   0  0  0  0  0  0
    0.0734   -0.8331   -1.1422 H   0  0  0  0  0  0
   -1.4651   -2.5282    2.6132 H   0  0  0  0  0  0
    2.3059   -0.9290   -0.0303 H   0  0  0  0  0  0
    1.9453    0.5369    0.8581 H   0  0  0  0  0  0
    2.0627    0.3669   -2.1888 H   0  0  0  0  0  0
    1.8230    1.8265   -1.2566 H   0  0  0  0  0  0
    4.0826    1.5451   -0.2143 H   0  0  0  0  0  0
    4.3309    0.0837   -1.1364 H   0  0  0  0  0  0
    5.4684    2.0067   -2.2275 H   0  0  0  0  0  0
    3.9423    2.8763   -2.3487 H   0  0  0  0  0  0
    4.1935    1.3992   -3.2787 H   0  0  0  0  0  0
   -4.1830    3.5715   -3.0860 H   0  0  0  0  0  0
   -4.2561    2.3031   -1.8696 H   0  0  0  0  0  0
   -3.1873    2.1372   -3.2512 H   0  0  0  0  0  0
   -1.0067    3.5642   -3.3848 H   0  0  0  0  0  0
   -0.6396    4.7156   -2.1132 H   0  0  0  0  0  0
   -1.9395    5.0437   -3.2520 H   0  0  0  0  0  0
   -3.6317    5.3682   -1.3402 H   0  0  0  0  0  0
   -2.3317    5.1076   -0.1841 H   0  0  0  0  0  0
   -3.7942    4.1426   -0.0887 H   0  0  0  0  0  0
   -2.6888   -3.6241    4.0986 H   0  0  0  0  0  0
   -4.7224   -4.8794    4.6799 H   0  0  0  0  0  0
   -6.4995   -5.2049    2.9952 H   0  0  0  0  0  0
   -6.2492   -4.2796    0.7202 H   0  0  0  0  0  0
   -4.2497   -3.0355    0.1094 H   0  0  0  0  0  0
  1 10  1  0  0  0
  1 16  1  0  0  0
  1 17  1  0  0  0
  1 18  1  0  0  0
  2  3  1  0  0  0
  2 10  1  0  0  0
  2 11  2  0  0  0
  3  4  1  0  0  0
  3 25  1  0  0  0
  4  5  1  0  0  0
  4 12  1  0  0  0
  4 26  1  0  0  0
  5  6  1  0  0  0
  5  7  2  0  0  0
  6  8  2  0  0  0
  6  9  1  0  0  0
  9 19  1  0  0  0
  9 27  1  0  0  0
 12 13  1  0  0  0
 12 28  1  0  0  0
 12 29  1  0  0  0
 13 14  1  0  0  0
 13 30  1  0  0  0
 13 31  1  0  0  0
 14 15  1  0  0  0
 14 32  1  0  0  0
 14 33  1  0  0  0
 15 34  1  0  0  0
 15 35  1  0  0  0
 15 36  1  0  0  0
 16 37  1  0  0  0
 16 38  1  0  0  0
 16 39  1  0  0  0
 17 40  1  0  0  0
 17 41  1  0  0  0
 17 42  1  0  0  0
 18 43  1  0  0  0
 18 44  1  0  0  0
 18 45  1  0  0  0
 19 20  2  0  0  0
 19 24  1  0  0  0
 20 21  1  0  0  0
 20 46  1  0  0  0
 21 22  2  0  0  0
 21 47  1  0  0  0
 22 23  1  0  0  0
 22 48  1  0  0  0
 23 24  2  0  0  0
 23 49  1  0  0  0
 24 50  1  0  0  0
M  END
> <chembl_id>
CHEMBL164535

> <chembl_pref_name>
None

> <i_m_ct_stereo_status>
1

> <s_m_source_file>
sdf/inactives_sanitized.sdf

> <i_m_source_file_index>
59

> <i_lp_mmshare_version>
49012

> <i_f3d_flags>
0

> <s_epik_input>
W0NIM11DKFtDSDNdKShbQ0gzXSlPQyg9TylbTkhdW0NAQEhdKFtDSDJdW0NIMl1bQ0gyXVtDSDNdKUMoPU8pQyg9TylbTkhdYzFbY0hdW2NIXVtjSF1bY0hdW2NIXTE=

> <s_epik_cmdline>
J2VwaWtfcHl0aG9uJywgJy1waHQnLCAnMC41JywgJy1waCcsICc3LjUnLCAnLW50JywgJy1tYScsICcyMDAnLCAnLWltYWUnLCAnPGluZmlsZS5tYWU+JywgJy1vbWFlJywgJzxvdXRmaWxlLm1hZT4n

> <r_lp_tautomer_probability>
1

> <r_epik_Ionization_Penalty>
  0.0000

> <r_epik_Ionization_Penalty_Charging>
  0.0000

> <r_epik_Ionization_Penalty_Neutral>
  0.0000

> <r_epik_State_Penalty>
 -0.0000

> <r_epik_Charging_Adjusted_Penalty>
0

> <i_epik_Tot_Q>
0

> <i_epik_Tot_abs_Q>
0

> <s_epik_Chemistry_Notes>
This compound has an ester and may undergo hydrolysis at high or low pH.

> <s_lp_Force_Field>
OPLS3e

> <r_lp_Energy>
27.034263

> <b_lp_Chiralities_Consistent>
1

> <s_lp_Variant>
sdf/inactives_sanitized.sdf:59-1

$$$$
sdf/inactives_sanitized.sdf:60
                    3D
 Schrodinger Suite 2020-1.
 40 41  0  0  1  0            999 V2000
   -2.7663   -1.9955    1.6389 C   0  0  0  0  0  0
   -4.1591   -2.0878    1.6250 C   0  0  0  0  0  0
   -4.9295   -0.9614    1.3357 C   0  0  0  0  0  0
   -4.3076    0.2566    1.0639 C   0  0  0  0  0  0
   -2.9159    0.3486    1.0777 C   0  0  0  0  0  0
   -2.1331   -0.7793    1.3570 C   0  0  0  0  0  0
   -0.6053   -0.6956    1.3678 C   0  0  0  0  0  0
   -0.0028   -0.0115    0.1085 C   0  0  2  0  0  0
   -0.4360   -0.6732   -1.1282 N   0  0  0  0  0  0
    1.5371   -0.0156    0.1852 C   0  0  0  0  0  0
    2.1612   -1.0604   -0.0111 O   0  0  0  0  0  0
    2.1210    1.1498    0.5112 N   0  0  0  0  0  0
    3.5576    1.3161    0.7074 C   0  0  0  0  0  0
    4.0650    0.5783    1.8782 C   0  0  0  0  0  0
    4.4631   -0.0006    2.7976 N   0  0  0  0  0  0
   -1.1379   -0.1071   -2.1288 C   0  0  0  0  0  0
   -1.4862    1.0758   -2.1210 O   0  0  0  0  0  0
   -1.4759   -1.0043   -3.2998 C   0  0  0  0  0  0
   -4.9277   -3.5956    1.9635 Cl  0  0  0  0  0  0
   -1.4351   -2.4062   -3.1930 C   0  0  0  0  0  0
   -1.7589   -3.2150   -4.2834 C   0  0  0  0  0  0
   -2.1307   -2.6358   -5.4956 C   0  0  0  0  0  0
   -2.1803   -1.2487   -5.6166 C   0  0  0  0  0  0
   -1.8571   -0.4395   -4.5273 C   0  0  0  0  0  0
   -1.7016   -4.9334   -4.1299 Cl  0  0  0  0  0  0
   -2.1791   -2.8746    1.8627 H   0  0  0  0  0  0
   -6.0077   -1.0287    1.3232 H   0  0  0  0  0  0
   -4.9037    1.1296    0.8427 H   0  0  0  0  0  0
   -2.4530    1.3012    0.8675 H   0  0  0  0  0  0
   -0.3029   -0.1711    2.2760 H   0  0  0  0  0  0
   -0.1997   -1.7063    1.4558 H   0  0  0  0  0  0
   -0.3348    1.0287    0.1097 H   0  0  0  0  0  0
   -0.1625   -1.6410   -1.2154 H   0  0  0  0  0  0
    1.5401    1.9547    0.6980 H   0  0  0  0  0  0
    4.1104    0.9978   -0.1781 H   0  0  0  0  0  0
    3.7744    2.3737    0.8572 H   0  0  0  0  0  0
   -1.1585   -2.8848   -2.2642 H   0  0  0  0  0  0
   -2.3824   -3.2587   -6.3416 H   0  0  0  0  0  0
   -2.4700   -0.7994   -6.5551 H   0  0  0  0  0  0
   -1.9048    0.6334   -4.6506 H   0  0  0  0  0  0
  1  6  2  0  0  0
  1  2  1  0  0  0
  1 26  1  0  0  0
  2 19  1  0  0  0
  2  3  2  0  0  0
  3  4  1  0  0  0
  3 27  1  0  0  0
  4  5  2  0  0  0
  4 28  1  0  0  0
  5  6  1  0  0  0
  5 29  1  0  0  0
  6  7  1  0  0  0
  7  8  1  0  0  0
  7 30  1  0  0  0
  7 31  1  0  0  0
  8  9  1  0  0  0
  8 10  1  0  0  0
  8 32  1  0  0  0
  9 16  1  0  0  0
  9 33  1  0  0  0
 10 11  2  0  0  0
 10 12  1  0  0  0
 12 13  1  0  0  0
 12 34  1  0  0  0
 13 14  1  0  0  0
 13 35  1  0  0  0
 13 36  1  0  0  0
 14 15  3  0  0  0
 16 17  2  0  0  0
 16 18  1  0  0  0
 18 20  2  0  0  0
 18 24  1  0  0  0
 20 21  1  0  0  0
 20 37  1  0  0  0
 21 22  2  0  0  0
 21 25  1  0  0  0
 22 23  1  0  0  0
 22 38  1  0  0  0
 23 24  2  0  0  0
 23 39  1  0  0  0
 24 40  1  0  0  0
M  END
> <chembl_id>
CHEMBL551805

> <chembl_pref_name>
None

> <i_m_ct_stereo_status>
1

> <s_m_source_file>
sdf/inactives_sanitized.sdf

> <i_m_source_file_index>
60

> <i_lp_mmshare_version>
49012

> <i_f3d_flags>
0

> <s_epik_input>
W2NIXTFbY0hdW2NIXWMoW2NIXWMxQ2wpW0NIMl1bQ0BASF0oQyg9TylbTkhdW0NIMl1DI04pW05IXUMoPU8pYzJbY0hdYyhDbClbY0hdW2NIXVtjSF0y

> <s_epik_cmdline>
J2VwaWtfcHl0aG9uJywgJy1waHQnLCAnMC41JywgJy1waCcsICc3LjUnLCAnLW50JywgJy1tYScsICcyMDAnLCAnLWltYWUnLCAnPGluZmlsZS5tYWU+JywgJy1vbWFlJywgJzxvdXRmaWxlLm1hZT4n

> <r_lp_tautomer_probability>
1

> <r_epik_Ionization_Penalty>
  0.0000

> <r_epik_Ionization_Penalty_Charging>
  0.0000

> <r_epik_Ionization_Penalty_Neutral>
  0.0000

> <r_epik_State_Penalty>
 -0.0000

> <r_epik_Charging_Adjusted_Penalty>
0

> <i_epik_Tot_Q>
0

> <i_epik_Tot_abs_Q>
0

> <s_lp_Force_Field>
OPLS3e

> <r_lp_Energy>
23.380488

> <b_lp_Chiralities_Consistent>
1

> <s_lp_Variant>
sdf/inactives_sanitized.sdf:60-1

$$$$
sdf/inactives_sanitized.sdf:61
                    3D
 Schrodinger Suite 2020-1.
 60 63  0  0  1  0            999 V2000
  -11.3087   -1.0777   -0.0125 C   0  0  0  0  0  0
   -9.5395   -1.6726   -0.2727 S   0  0  0  0  0  0
   -9.1205   -2.4611    0.8910 O   0  0  0  0  0  0
   -9.4110   -2.2151   -1.6293 O   0  0  0  0  0  0
   -8.6234   -0.1539   -0.2233 N   0  0  0  0  0  0
   -7.2229   -0.1485   -0.1846 C   0  0  0  0  0  0
   -6.5847    0.7689    0.6482 C   0  0  0  0  0  0
   -5.1941    0.8108    0.7069 C   0  0  0  0  0  0
   -4.4141   -0.0616   -0.0651 C   0  0  0  0  0  0
   -5.0698   -0.9774   -0.9000 C   0  0  0  0  0  0
   -6.4596   -1.0207   -0.9639 C   0  0  0  0  0  0
   -2.9195   -0.0140   -0.0049 C   0  0  0  0  0  0
   -2.1569   -1.1794   -0.1691 C   0  0  0  0  0  0
   -0.7662   -1.1366   -0.1249 C   0  0  0  0  0  0
   -0.1129    0.0775    0.0835 C   0  0  0  0  0  0
    1.4091    0.1272    0.1062 C   0  0  0  0  0  0
    2.0377    0.1447   -1.3070 C   0  0  2  0  0  0
    3.5016    0.0679   -1.2891 N   0  0  0  0  0  0
    4.3447    1.0458   -0.9059 C   0  0  0  0  0  0
    3.9465    2.1278   -0.4668 O   0  0  0  0  0  0
    5.8564    0.7177   -1.0236 C   0  0  1  0  0  0
    6.6461    1.9740   -1.0750 N   0  0  1  0  0  0
    7.7456    1.9945   -0.0923 C   0  0  2  0  0  0
    8.6521    0.7588   -0.3523 C   0  0  0  0  0  0
    7.8315   -0.5562   -0.2100 C   0  0  0  0  0  0
    6.3480   -0.2324    0.1274 C   0  0  1  0  0  0
    6.3174    0.5636    1.4675 C   0  0  0  0  0  0
    7.1262    1.8837    1.3277 C   0  0  0  0  0  0
    1.5537    1.2654   -2.1391 C   0  0  0  0  0  0
    1.1738    2.1426   -2.7916 N   0  0  0  0  0  0
   -0.8560    1.2456    0.2533 C   0  0  0  0  0  0
   -2.2467    1.1974    0.2105 C   0  0  0  0  0  0
  -11.9745   -1.9402   -0.0224 H   0  0  0  0  0  0
  -11.5749   -0.3932   -0.8177 H   0  0  0  0  0  0
  -11.3746   -0.5685    0.9487 H   0  0  0  0  0  0
   -9.0602    0.5704    0.3270 H   0  0  0  0  0  0
   -7.1613    1.4518    1.2556 H   0  0  0  0  0  0
   -4.7281    1.5248    1.3698 H   0  0  0  0  0  0
   -4.5059   -1.6568   -1.5220 H   0  0  0  0  0  0
   -6.9285   -1.7313   -1.6272 H   0  0  0  0  0  0
   -2.6377   -2.1338   -0.3252 H   0  0  0  0  0  0
   -0.1994   -2.0467   -0.2576 H   0  0  0  0  0  0
    1.7345    0.9958    0.6813 H   0  0  0  0  0  0
    1.7746   -0.7355    0.6662 H   0  0  0  0  0  0
    1.7032   -0.7494   -1.8345 H   0  0  0  0  0  0
    3.9011   -0.7739   -1.6773 H   0  0  0  0  0  0
    5.9634    0.2210   -1.9903 H   0  0  0  0  0  0
    7.0737    2.0397   -1.9876 H   0  0  0  0  0  0
    8.3105    2.9214   -0.1965 H   0  0  0  0  0  0
    9.0955    0.8197   -1.3475 H   0  0  0  0  0  0
    9.4881    0.7573    0.3487 H   0  0  0  0  0  0
    7.8913   -1.1390   -1.1304 H   0  0  0  0  0  0
    8.2634   -1.1856    0.5695 H   0  0  0  0  0  0
    5.7542   -1.1458    0.1908 H   0  0  0  0  0  0
    5.2912    0.7759    1.7702 H   0  0  0  0  0  0
    6.7380   -0.0459    2.2685 H   0  0  0  0  0  0
    6.4799    2.7412    1.5221 H   0  0  0  0  0  0
    7.9131    1.9235    2.0821 H   0  0  0  0  0  0
   -0.3590    2.1926    0.4072 H   0  0  0  0  0  0
   -2.7971    2.1191    0.3289 H   0  0  0  0  0  0
  1  2  1  0  0  0
  1 33  1  0  0  0
  1 34  1  0  0  0
  1 35  1  0  0  0
  2  3  2  0  0  0
  2  4  2  0  0  0
  2  5  1  0  0  0
  5  6  1  0  0  0
  5 36  1  0  0  0
  6  7  2  0  0  0
  6 11  1  0  0  0
  7  8  1  0  0  0
  7 37  1  0  0  0
  8  9  2  0  0  0
  8 38  1  0  0  0
  9 10  1  0  0  0
  9 12  1  0  0  0
 10 11  2  0  0  0
 10 39  1  0  0  0
 11 40  1  0  0  0
 12 13  2  0  0  0
 12 32  1  0  0  0
 13 14  1  0  0  0
 13 41  1  0  0  0
 14 15  2  0  0  0
 14 42  1  0  0  0
 15 16  1  0  0  0
 15 31  1  0  0  0
 16 17  1  0  0  0
 16 43  1  0  0  0
 16 44  1  0  0  0
 17 18  1  0  0  0
 17 29  1  0  0  0
 17 45  1  0  0  0
 18 19  1  0  0  0
 18 46  1  0  0  0
 19 20  2  0  0  0
 19 21  1  0  0  0
 21 22  1  0  0  0
 21 26  1  0  0  0
 21 47  1  0  0  0
 22 23  1  0  0  0
 22 48  1  0  0  0
 23 24  1  0  0  0
 23 28  1  0  0  0
 23 49  1  0  0  0
 24 25  1  0  0  0
 24 50  1  0  0  0
 24 51  1  0  0  0
 25 26  1  0  0  0
 25 52  1  0  0  0
 25 53  1  0  0  0
 26 27  1  0  0  0
 26 54  1  0  0  0
 27 28  1  0  0  0
 27 55  1  0  0  0
 27 56  1  0  0  0
 28 57  1  0  0  0
 28 58  1  0  0  0
 29 30  3  0  0  0
 31 32  2  0  0  0
 31 59  1  0  0  0
 32 60  1  0  0  0
M  END
> <chembl_id>
CHEMBL3695344

> <chembl_pref_name>
None

> <i_m_ct_stereo_status>
1

> <s_m_source_file>
sdf/inactives_sanitized.sdf

> <i_m_source_file_index>
61

> <i_lp_mmshare_version>
49012

> <i_f3d_flags>
0

> <s_epik_input>
W0NIM11TKD1PKSg9TylbTkhdYzFbY0hdW2NIXWMoW2NIXVtjSF0xKS1jMltjSF1bY0hdYyhbY0hdW2NIXTIpW0NIMl1bQ0BASF0oQyNOKVtOSF1DKD1PKVtDQEBIXShbTkhdW0NASF0zNClbQ0BASF0oW0NIMl1bQ0gyXTMpW0NIMl1bQ0gyXTQ=

> <s_epik_cmdline>
J2VwaWtfcHl0aG9uJywgJy1waHQnLCAnMC41JywgJy1waCcsICc3LjUnLCAnLW50JywgJy1tYScsICcyMDAnLCAnLWltYWUnLCAnPGluZmlsZS5tYWU+JywgJy1vbWFlJywgJzxvdXRmaWxlLm1hZT4n

> <r_epik_Ionization_Penalty>
  0.4432

> <r_epik_Ionization_Penalty_Charging>
  0.0000

> <r_epik_Ionization_Penalty_Neutral>
  0.4432

> <r_epik_State_Penalty>
  0.4375

> <r_epik_Charging_Adjusted_Penalty>
0.437536549038524

> <i_epik_Tot_Q>
0

> <i_epik_Tot_abs_Q>
0

> <s_lp_Force_Field>
OPLS3e

> <r_lp_Energy>
37.485816

> <b_lp_Chiralities_Consistent>
1

> <s_lp_Variant>
sdf/inactives_sanitized.sdf:61-1

$$$$
sdf/inactives_sanitized.sdf:61
                    3D
 Schrodinger Suite 2020-1.
 61 64  0  0  1  0            999 V2000
  -11.3352    0.5443   -0.5931 C   0  0  0  0  0  0
   -9.6001    0.2212   -1.2537 S   0  0  0  0  0  0
   -9.5777   -1.0851   -1.9196 O   0  0  0  0  0  0
   -9.1233    1.4242   -1.9444 O   0  0  0  0  0  0
   -8.6652    0.0444    0.2424 N   0  0  0  0  0  0
   -7.2683    0.0389    0.1744 C   0  0  0  0  0  0
   -6.5626    1.1780   -0.2131 C   0  0  0  0  0  0
   -5.1716    1.1516   -0.2579 C   0  0  0  0  0  0
   -4.4611   -0.0068    0.0882 C   0  0  0  0  0  0
   -5.1868   -1.1394    0.4847 C   0  0  0  0  0  0
   -6.5780   -1.1171    0.5321 C   0  0  0  0  0  0
   -2.9658   -0.0334    0.0380 C   0  0  0  0  0  0
   -2.2791   -1.2121   -0.2867 C   0  0  0  0  0  0
   -0.8884   -1.2390   -0.3372 C   0  0  0  0  0  0
   -0.1585   -0.0828   -0.0631 C   0  0  0  0  0  0
    1.3647   -0.1062   -0.1312 C   0  0  0  0  0  0
    1.9366    0.1721   -1.5414 C   0  0  2  0  0  0
    1.5411    1.4734   -2.0838 N   0  0  0  0  0  0
    2.1142    2.6481   -1.7705 C   0  0  0  0  0  0
    3.0678    2.7285   -0.9917 O   0  0  0  0  0  0
    1.4867    3.8974   -2.4429 C   0  0  1  0  0  0
    2.2448    5.1341   -1.8749 N   0  3  0  0  0  0
    2.8380    6.0263   -2.9920 C   0  0  2  0  0  0
    1.6504    6.4573   -3.8897 C   0  0  0  0  0  0
    0.9396    5.2141   -4.4984 C   0  0  0  0  0  0
    1.5942    3.8908   -4.0077 C   0  0  1  0  0  0
    3.0968    3.9248   -4.4244 C   0  0  0  0  0  0
    3.8272    5.1441   -3.7947 C   0  0  0  0  0  0
    1.6029   -0.8855   -2.5107 C   0  0  0  0  0  0
    1.3405   -1.7159   -3.2726 N   0  0  0  0  0  0
   -0.8257    1.0973    0.2655 C   0  0  0  0  0  0
   -2.2167    1.1196    0.3139 C   0  0  0  0  0  0
  -12.0135    0.6771   -1.4351 H   0  0  0  0  0  0
  -11.3192    1.4468    0.0174 H   0  0  0  0  0  0
  -11.6505   -0.3075    0.0085 H   0  0  0  0  0  0
   -8.9905   -0.7659    0.7488 H   0  0  0  0  0  0
   -7.0837    2.0867   -0.4772 H   0  0  0  0  0  0
   -4.6513    2.0431   -0.5755 H   0  0  0  0  0  0
   -4.6772   -2.0469    0.7734 H   0  0  0  0  0  0
   -7.1139   -2.0018    0.8449 H   0  0  0  0  0  0
   -2.8191   -2.1185   -0.5176 H   0  0  0  0  0  0
   -0.3821   -2.1576   -0.5968 H   0  0  0  0  0  0
    1.7626    0.6167    0.5832 H   0  0  0  0  0  0
    1.7168   -1.0759    0.2249 H   0  0  0  0  0  0
    3.0268    0.1289   -1.4878 H   0  0  0  0  0  0
    0.7247    1.4753   -2.6784 H   0  0  0  0  0  0
    0.4623    3.9781   -2.0749 H   0  0  0  0  0  0
    1.6097    5.6894   -1.3195 H   0  0  0  0  0  0
    3.3243    6.8657   -2.4934 H   0  0  0  0  0  0
    0.9395    7.0513   -3.3128 H   0  0  0  0  0  0
    2.0079    7.1108   -4.6869 H   0  0  0  0  0  0
   -0.1204    5.2259   -4.2398 H   0  0  0  0  0  0
    0.9746    5.2624   -5.5880 H   0  0  0  0  0  0
    1.0854    3.0288   -4.4429 H   0  0  0  0  0  0
    3.5985    2.9966   -4.1471 H   0  0  0  0  0  0
    3.1710    3.9748   -5.5120 H   0  0  0  0  0  0
    4.6335    4.8007   -3.1442 H   0  0  0  0  0  0
    4.3052    5.7378   -4.5754 H   0  0  0  0  0  0
   -0.2696    1.9980    0.4821 H   0  0  0  0  0  0
   -2.7076    2.0440    0.5807 H   0  0  0  0  0  0
    2.9901    4.8163   -1.2705 H   0  0  0  0  0  0
  1  2  1  0  0  0
  1 33  1  0  0  0
  1 34  1  0  0  0
  1 35  1  0  0  0
  2  3  2  0  0  0
  2  4  2  0  0  0
  2  5  1  0  0  0
  5  6  1  0  0  0
  5 36  1  0  0  0
  6  7  2  0  0  0
  6 11  1  0  0  0
  7  8  1  0  0  0
  7 37  1  0  0  0
  8  9  2  0  0  0
  8 38  1  0  0  0
  9 10  1  0  0  0
  9 12  1  0  0  0
 10 11  2  0  0  0
 10 39  1  0  0  0
 11 40  1  0  0  0
 12 13  2  0  0  0
 12 32  1  0  0  0
 13 14  1  0  0  0
 13 41  1  0  0  0
 14 15  2  0  0  0
 14 42  1  0  0  0
 15 16  1  0  0  0
 15 31  1  0  0  0
 16 17  1  0  0  0
 16 43  1  0  0  0
 16 44  1  0  0  0
 17 18  1  0  0  0
 17 29  1  0  0  0
 17 45  1  0  0  0
 18 19  1  0  0  0
 18 46  1  0  0  0
 19 20  2  0  0  0
 19 21  1  0  0  0
 21 22  1  0  0  0
 21 26  1  0  0  0
 21 47  1  0  0  0
 22 23  1  0  0  0
 22 48  1  0  0  0
 22 61  1  0  0  0
 23 24  1  0  0  0
 23 28  1  0  0  0
 23 49  1  0  0  0
 24 25  1  0  0  0
 24 50  1  0  0  0
 24 51  1  0  0  0
 25 26  1  0  0  0
 25 52  1  0  0  0
 25 53  1  0  0  0
 26 27  1  0  0  0
 26 54  1  0  0  0
 27 28  1  0  0  0
 27 55  1  0  0  0
 27 56  1  0  0  0
 28 57  1  0  0  0
 28 58  1  0  0  0
 29 30  3  0  0  0
 31 32  2  0  0  0
 31 59  1  0  0  0
 32 60  1  0  0  0
M  CHG  1  22   1
M  END
> <chembl_id>
CHEMBL3695344

> <chembl_pref_name>
None

> <i_m_ct_stereo_status>
1

> <s_m_source_file>
sdf/inactives_sanitized.sdf

> <i_m_source_file_index>
61

> <i_lp_mmshare_version>
49012

> <i_f3d_flags>
0

> <s_epik_input>
W0NIM11TKD1PKSg9TylbTkhdYzFbY0hdW2NIXWMoW2NIXVtjSF0xKS1jMltjSF1bY0hdYyhbY0hdW2NIXTIpW0NIMl1bQ0BASF0oQyNOKVtOSF1DKD1PKVtDQEBIXShbTkhdW0NASF0zNClbQ0BASF0oW0NIMl1bQ0gyXTMpW0NIMl1bQ0gyXTQ=

> <s_epik_cmdline>
J2VwaWtfcHl0aG9uJywgJy1waHQnLCAnMC41JywgJy1waCcsICc3LjUnLCAnLW50JywgJy1tYScsICcyMDAnLCAnLWltYWUnLCAnPGluZmlsZS5tYWU+JywgJy1vbWFlJywgJzxvdXRmaWxlLm1hZT4n

> <r_epik_Ionization_Penalty>
  0.4446

> <r_epik_Ionization_Penalty_Charging>
  0.4113

> <r_epik_Ionization_Penalty_Neutral>
  0.0333

> <r_epik_State_Penalty>
  0.4388

> <r_epik_Charging_Adjusted_Penalty>
0.850115857524917

> <i_epik_Tot_Q>
1

> <i_epik_Tot_abs_Q>
1

> <s_lp_Force_Field>
OPLS3e

> <r_lp_Energy>
46.026265

> <b_lp_Chiralities_Consistent>
1

> <s_lp_Variant>
sdf/inactives_sanitized.sdf:61-2

$$$$
sdf/inactives_sanitized.sdf:62
                    3D
 Schrodinger Suite 2020-1.
 58 60  0  0  1  0            999 V2000
   -0.2546    0.0209    0.0936 C   0  0  2  0  0  0
   -0.8905   -0.9065   -0.9648 C   0  0  0  0  0  0
    0.4678    7.2358   -5.2262 N   0  0  0  0  0  0
   -0.8795    1.4221    0.0173 C   0  0  0  0  0  0
   -0.5721   -4.4311   -2.6623 N   0  0  0  0  0  0
   -0.5229    2.3235   -0.9959 C   0  0  0  0  0  0
   -1.0906    3.6046   -1.0778 C   0  0  0  0  0  0
    0.0752    6.3661   -4.2054 C   0  0  0  0  0  0
   -1.3268   -3.7673   -2.0889 C   0  0  0  0  0  0
   -0.6892    4.5582   -2.1597 C   0  0  0  0  0  0
    1.2991    0.0173   -0.0107 C   0  0  0  0  0  0
   -0.7077   -0.6992   -2.1657 O   0  0  0  0  0  0
   -1.2232    6.3819   -3.6745 C   0  0  0  0  0  0
    0.9785    5.4207   -3.7024 C   0  0  0  0  0  0
   -1.5961    5.4963   -2.6670 C   0  0  0  0  0  0
    0.6041    4.5354   -2.6958 C   0  0  0  0  0  0
    1.2308    9.4015   -6.9904 O   0  0  0  0  0  0
   -1.6391   -1.9263   -0.5089 N   0  0  0  0  0  0
   -2.2879   -2.9221   -1.3581 C   0  0  0  0  0  0
    1.7439    7.9674   -5.0986 C   0  0  0  0  0  0
   -0.5118    8.0799   -5.9372 C   0  0  0  0  0  0
   -1.8391    1.8079    0.9578 C   0  0  0  0  0  0
   -2.0449    3.9610   -0.1131 C   0  0  0  0  0  0
   -2.4176    3.0726    0.8939 C   0  0  0  0  0  0
    2.0507    0.9074    1.0134 C   0  0  0  0  0  0
    0.0365    8.6797   -7.2492 C   0  0  0  0  0  0
    2.2362    8.5696   -6.4321 C   0  0  0  0  0  0
    3.5603    0.9365    0.7125 C   0  0  0  0  0  0
    1.7938    0.4866    2.4738 C   0  0  0  0  0  0
   -0.4988   -0.3917    1.0745 H   0  0  0  0  0  0
    0.1991    2.0121   -1.7357 H   0  0  0  0  0  0
    1.6596   -1.0081    0.0953 H   0  0  0  0  0  0
    1.5973    0.3175   -1.0171 H   0  0  0  0  0  0
   -1.9628    7.0855   -4.0260 H   0  0  0  0  0  0
    1.9820    5.3487   -4.0945 H   0  0  0  0  0  0
   -2.6081    5.5413   -2.2931 H   0  0  0  0  0  0
    1.3395    3.8328   -2.3322 H   0  0  0  0  0  0
   -1.7070   -2.0715    0.4877 H   0  0  0  0  0  0
   -2.9557   -2.4430   -2.0758 H   0  0  0  0  0  0
   -2.9010   -3.5730   -0.7351 H   0  0  0  0  0  0
    1.6325    8.7493   -4.3459 H   0  0  0  0  0  0
    2.5293    7.3070   -4.7340 H   0  0  0  0  0  0
   -1.3805    7.4721   -6.1929 H   0  0  0  0  0  0
   -0.8649    8.8709   -5.2735 H   0  0  0  0  0  0
   -2.1383    1.1298    1.7438 H   0  0  0  0  0  0
   -2.5020    4.9394   -0.1278 H   0  0  0  0  0  0
   -3.1541    3.3670    1.6269 H   0  0  0  0  0  0
    1.6918    1.9317    0.9032 H   0  0  0  0  0  0
   -0.6960    9.3624   -7.6803 H   0  0  0  0  0  0
    0.2113    7.9010   -7.9945 H   0  0  0  0  0  0
    3.1294    9.1708   -6.2617 H   0  0  0  0  0  0
    2.5191    7.7846   -7.1362 H   0  0  0  0  0  0
    4.0078   -0.0530    0.8145 H   0  0  0  0  0  0
    4.0863    1.6096    1.3907 H   0  0  0  0  0  0
    3.7548    1.2849   -0.3024 H   0  0  0  0  0  0
    2.0822   -0.5510    2.6460 H   0  0  0  0  0  0
    0.7433    0.5910    2.7449 H   0  0  0  0  0  0
    2.3615    1.1065    3.1686 H   0  0  0  0  0  0
  1  2  1  0  0  0
  1  4  1  0  0  0
  1 11  1  0  0  0
  1 30  1  0  0  0
  2 12  2  0  0  0
  2 18  1  0  0  0
  3  8  1  0  0  0
  3 20  1  0  0  0
  3 21  1  0  0  0
  4  6  2  0  0  0
  4 22  1  0  0  0
  5  9  3  0  0  0
  6  7  1  0  0  0
  6 31  1  0  0  0
  7 10  1  0  0  0
  7 23  2  0  0  0
  8 14  2  0  0  0
  8 13  1  0  0  0
  9 19  1  0  0  0
 10 15  1  0  0  0
 10 16  2  0  0  0
 11 25  1  0  0  0
 11 32  1  0  0  0
 11 33  1  0  0  0
 13 15  2  0  0  0
 13 34  1  0  0  0
 14 16  1  0  0  0
 14 35  1  0  0  0
 15 36  1  0  0  0
 16 37  1  0  0  0
 17 26  1  0  0  0
 17 27  1  0  0  0
 18 19  1  0  0  0
 18 38  1  0  0  0
 19 39  1  0  0  0
 19 40  1  0  0  0
 20 27  1  0  0  0
 20 41  1  0  0  0
 20 42  1  0  0  0
 21 26  1  0  0  0
 21 43  1  0  0  0
 21 44  1  0  0  0
 22 24  2  0  0  0
 22 45  1  0  0  0
 23 24  1  0  0  0
 23 46  1  0  0  0
 24 47  1  0  0  0
 25 28  1  0  0  0
 25 29  1  0  0  0
 25 48  1  0  0  0
 26 49  1  0  0  0
 26 50  1  0  0  0
 27 51  1  0  0  0
 27 52  1  0  0  0
 28 53  1  0  0  0
 28 54  1  0  0  0
 28 55  1  0  0  0
 29 56  1  0  0  0
 29 57  1  0  0  0
 29 58  1  0  0  0
M  END
> <chembl_id>
CHEMBL124159

> <chembl_pref_name>
None

> <s_m_source_file>
sdf/inactives_sanitized.sdf

> <i_m_source_file_index>
62

> <i_lp_mmshare_version>
49012

> <i_m_ct_stereo_status>
1

> <i_f3d_flags>
0

> <s_epik_input>
TiNDW0NIMl1bTkhdQyg9TylbQ0BASF0oW0NIMl1bQ0hdKFtDSDNdKVtDSDNdKWMxW2NIXWMoW2NIXVtjSF1bY0hdMSktYyhbY0hdW2NIXTIpW2NIXVtjSF1jMk4zW0NIMl1bQ0gyXU9bQ0gyXVtDSDJdMw==

> <s_epik_cmdline>
J2VwaWtfcHl0aG9uJywgJy1waHQnLCAnMC41JywgJy1waCcsICc3LjUnLCAnLW50JywgJy1tYScsICcyMDAnLCAnLWltYWUnLCAnPGluZmlsZS5tYWU+JywgJy1vbWFlJywgJzxvdXRmaWxlLm1hZT4n

> <r_lp_tautomer_probability>
1

> <r_epik_Ionization_Penalty>
  0.0000

> <r_epik_Ionization_Penalty_Charging>
  0.0000

> <r_epik_Ionization_Penalty_Neutral>
  0.0000

> <r_epik_State_Penalty>
 -0.0000

> <r_epik_Charging_Adjusted_Penalty>
0

> <i_epik_Tot_Q>
0

> <i_epik_Tot_abs_Q>
0

> <s_lp_Force_Field>
OPLS3e

> <r_lp_Energy>
39.944652

> <b_lp_Chiralities_Consistent>
1

> <s_lp_Variant>
sdf/inactives_sanitized.sdf:62-1

$$$$
sdf/inactives_sanitized.sdf:63
                    3D
 Schrodinger Suite 2020-1.
 40 39  0  0  1  0            999 V2000
   -2.2674    3.6502   -1.6548 C   0  0  0  0  0  0
   -1.1739    1.5132   -0.9968 C   0  0  0  0  0  0
   -0.7997    0.8947    0.1890 N   0  0  0  0  0  0
   -0.0694   -0.3811    0.1640 C   0  0  2  0  0  0
   -0.4323   -1.0413    1.4941 C   0  0  0  0  0  0
   -1.9127   -1.6124    1.6050 C   0  0  0  0  0  0
    0.3603   -1.1754    2.4319 O   0  0  0  0  0  0
   -2.7088   -1.5570    0.6690 O   0  0  0  0  0  0
   -2.1825   -2.1459    2.8019 N   0  0  0  0  0  0
   -1.7443    2.7109   -0.6965 O   0  0  0  0  0  0
   -1.0143    1.0661   -2.1344 O   0  0  0  0  0  0
    1.4608   -0.1771   -0.0267 C   0  0  0  0  0  0
    2.2652   -1.4809   -0.2163 C   0  0  0  0  0  0
    3.7632   -1.2262   -0.4581 C   0  0  0  0  0  0
    4.5682   -2.5203   -0.6381 C   0  0  0  0  0  0
   -3.4398    3.0396   -2.4625 C   0  0  0  0  0  0
   -1.1554    4.1716   -2.5987 C   0  0  0  0  0  0
   -2.7947    4.8178   -0.7957 C   0  0  0  0  0  0
   -0.7731    1.4465    1.0341 H   0  0  0  0  0  0
   -0.4308   -1.0174   -0.6483 H   0  0  0  0  0  0
   -1.4768   -2.1571    3.5242 H   0  0  0  0  0  0
   -3.0929   -2.5407    2.9878 H   0  0  0  0  0  0
    1.6164    0.4468   -0.9087 H   0  0  0  0  0  0
    1.8702    0.4018    0.8035 H   0  0  0  0  0  0
    2.1528   -2.1199    0.6599 H   0  0  0  0  0  0
    1.8548   -2.0386   -1.0595 H   0  0  0  0  0  0
    3.8910   -0.6005   -1.3426 H   0  0  0  0  0  0
    4.1780   -0.6620    0.3782 H   0  0  0  0  0  0
    5.6230   -2.3020   -0.8059 H   0  0  0  0  0  0
    4.2091   -3.0946   -1.4927 H   0  0  0  0  0  0
    4.4991   -3.1554    0.2457 H   0  0  0  0  0  0
   -3.9276    3.7909   -3.0848 H   0  0  0  0  0  0
   -4.1986    2.6193   -1.8013 H   0  0  0  0  0  0
   -3.1119    2.2390   -3.1251 H   0  0  0  0  0  0
   -0.7766    3.3927   -3.2603 H   0  0  0  0  0  0
   -0.3052    4.5556   -2.0336 H   0  0  0  0  0  0
   -1.5196    4.9812   -3.2324 H   0  0  0  0  0  0
   -3.2259    5.6077   -1.4120 H   0  0  0  0  0  0
   -1.9987    5.2663   -0.1990 H   0  0  0  0  0  0
   -3.5673    4.4858   -0.1005 H   0  0  0  0  0  0
  1 10  1  0  0  0
  1 16  1  0  0  0
  1 17  1  0  0  0
  1 18  1  0  0  0
  2 10  1  0  0  0
  2 11  2  0  0  0
  2  3  1  0  0  0
  3  4  1  0  0  0
  3 19  1  0  0  0
  4 12  1  0  0  0
  4  5  1  0  0  0
  4 20  1  0  0  0
  5  6  1  0  0  0
  5  7  2  0  0  0
  6  8  2  0  0  0
  6  9  1  0  0  0
  9 21  1  0  0  0
  9 22  1  0  0  0
 12 13  1  0  0  0
 12 23  1  0  0  0
 12 24  1  0  0  0
 13 14  1  0  0  0
 13 25  1  0  0  0
 13 26  1  0  0  0
 14 15  1  0  0  0
 14 27  1  0  0  0
 14 28  1  0  0  0
 15 29  1  0  0  0
 15 30  1  0  0  0
 15 31  1  0  0  0
 16 32  1  0  0  0
 16 33  1  0  0  0
 16 34  1  0  0  0
 17 35  1  0  0  0
 17 36  1  0  0  0
 17 37  1  0  0  0
 18 38  1  0  0  0
 18 39  1  0  0  0
 18 40  1  0  0  0
M  END
> <chembl_id>
CHEMBL159569

> <chembl_pref_name>
None

> <i_m_ct_stereo_status>
1

> <s_m_source_file>
sdf/inactives_sanitized.sdf

> <i_m_source_file_index>
63

> <i_lp_mmshare_version>
49012

> <i_f3d_flags>
0

> <s_epik_input>
W0NIM11DKFtDSDNdKShbQ0gzXSlPQyg9TylbTkhdW0NASF0oQyg9TylDKD1PKVtOSDJdKVtDSDJdW0NIMl1bQ0gyXVtDSDNd

> <s_epik_cmdline>
J2VwaWtfcHl0aG9uJywgJy1waHQnLCAnMC41JywgJy1waCcsICc3LjUnLCAnLW50JywgJy1tYScsICcyMDAnLCAnLWltYWUnLCAnPGluZmlsZS5tYWU+JywgJy1vbWFlJywgJzxvdXRmaWxlLm1hZT4n

> <r_lp_tautomer_probability>
1

> <r_epik_Ionization_Penalty>
  0.0000

> <r_epik_Ionization_Penalty_Charging>
  0.0000

> <r_epik_Ionization_Penalty_Neutral>
  0.0000

> <r_epik_State_Penalty>
 -0.0000

> <r_epik_Charging_Adjusted_Penalty>
0

> <i_epik_Tot_Q>
0

> <i_epik_Tot_abs_Q>
0

> <s_epik_Chemistry_Notes>
This compound has an ester and may undergo hydrolysis at high or low pH.

> <s_lp_Force_Field>
OPLS3e

> <r_lp_Energy>
12.637453

> <b_lp_Chiralities_Consistent>
1

> <s_lp_Variant>
sdf/inactives_sanitized.sdf:63-1

$$$$
sdf/inactives_sanitized.sdf:64
                    3D
 Schrodinger Suite 2020-1.
 59 59  0  0  1  0            999 V2000
   -0.6633   -1.6213    0.0297 C   0  0  0  0  0  0
   -0.1511   -0.2145    0.5355 C   0  0  0  0  0  0
   -1.4532   -1.6244   -1.0886 N   0  0  0  0  0  0
    1.9835   -0.3353   -1.9359 C   0  0  0  0  0  0
    1.6360    0.5095   -0.8872 N   0  0  0  0  0  0
    1.3605    0.0041    0.4682 C   0  0  1  0  0  0
   -2.0849   -2.8494   -1.6476 C   0  0  1  0  0  0
   -0.3357   -2.6090    0.6878 O   0  0  0  0  0  0
   -0.9614    0.5972    0.9874 O   0  0  0  0  0  0
    2.1078    0.4128   -3.0652 O   0  0  0  0  0  0
    2.1419   -1.5552   -1.8681 O   0  0  0  0  0  0
   -1.2687   -3.5119   -2.7601 C   0  0  0  0  0  0
    2.4141   -0.0964   -4.3769 C   0  0  0  0  0  0
   -1.6063   -0.4818   -2.0103 C   0  0  0  0  0  0
   -2.6101   -3.8945   -0.6331 C   0  0  0  0  0  0
    1.8635    1.0075    1.5399 C   0  0  0  0  0  0
    1.2985   -1.0421   -4.8833 C   0  0  0  0  0  0
    3.7946   -0.7985   -4.4082 C   0  0  0  0  0  0
    2.4627    1.1582   -5.2725 C   0  0  0  0  0  0
    0.0104   -4.0177   -2.5020 C   0  0  0  0  0  0
   -1.8179   -3.6334   -4.0400 C   0  0  0  0  0  0
    1.7340    0.5129    2.9970 C   0  0  0  0  0  0
    2.3072    1.5095    4.0197 C   0  0  0  0  0  0
    2.1835    1.0168    5.4679 C   0  0  0  0  0  0
   -1.0903   -4.2463   -5.0568 C   0  0  0  0  0  0
    0.7361   -4.6344   -3.5172 C   0  0  0  0  0  0
    0.1831   -4.7444   -4.7909 C   0  0  0  0  0  0
    1.4611    1.4852   -1.0790 H   0  0  0  0  0  0
    1.8949   -0.9320    0.6512 H   0  0  0  0  0  0
   -3.0073   -2.4888   -2.1070 H   0  0  0  0  0  0
   -1.1632    0.4511   -1.6666 H   0  0  0  0  0  0
   -2.6643   -0.2841   -2.1850 H   0  0  0  0  0  0
   -1.1504   -0.7159   -2.9723 H   0  0  0  0  0  0
   -3.2910   -4.5944   -1.1186 H   0  0  0  0  0  0
   -3.1634   -3.4172    0.1764 H   0  0  0  0  0  0
   -1.8084   -4.4859   -0.1905 H   0  0  0  0  0  0
    2.9163    1.2170    1.3418 H   0  0  0  0  0  0
    1.3566    1.9681    1.4260 H   0  0  0  0  0  0
    1.4743   -1.3521   -5.9140 H   0  0  0  0  0  0
    0.3212   -0.5599   -4.8478 H   0  0  0  0  0  0
    1.2300   -1.9474   -4.2837 H   0  0  0  0  0  0
    3.8008   -1.7250   -3.8345 H   0  0  0  0  0  0
    4.5734   -0.1573   -3.9936 H   0  0  0  0  0  0
    4.0881   -1.0522   -5.4275 H   0  0  0  0  0  0
    2.6864    0.9034   -6.3093 H   0  0  0  0  0  0
    3.2261    1.8611   -4.9355 H   0  0  0  0  0  0
    1.5113    1.6921   -5.2648 H   0  0  0  0  0  0
    0.4445   -3.9373   -1.5166 H   0  0  0  0  0  0
   -2.8068   -3.2524   -4.2500 H   0  0  0  0  0  0
    0.6859    0.3268    3.2347 H   0  0  0  0  0  0
    2.2477   -0.4442    3.1002 H   0  0  0  0  0  0
    3.3578    1.7014    3.7972 H   0  0  0  0  0  0
    1.7943    2.4677    3.9241 H   0  0  0  0  0  0
    2.5913    1.7497    6.1648 H   0  0  0  0  0  0
    2.7262    0.0824    5.6157 H   0  0  0  0  0  0
    1.1414    0.8456    5.7402 H   0  0  0  0  0  0
   -1.5127   -4.3376   -6.0466 H   0  0  0  0  0  0
    1.7242   -5.0221   -3.3177 H   0  0  0  0  0  0
    0.7469   -5.2210   -5.5793 H   0  0  0  0  0  0
  1  2  1  0  0  0
  1  3  1  0  0  0
  1  8  2  0  0  0
  2  6  1  0  0  0
  2  9  2  0  0  0
  3  7  1  0  0  0
  3 14  1  0  0  0
  4  5  1  0  0  0
  4 10  1  0  0  0
  4 11  2  0  0  0
  5  6  1  0  0  0
  5 28  1  0  0  0
  6 16  1  0  0  0
  6 29  1  0  0  0
  7 12  1  0  0  0
  7 15  1  0  0  0
  7 30  1  0  0  0
 10 13  1  0  0  0
 12 20  2  0  0  0
 12 21  1  0  0  0
 13 17  1  0  0  0
 13 18  1  0  0  0
 13 19  1  0  0  0
 14 31  1  0  0  0
 14 32  1  0  0  0
 14 33  1  0  0  0
 15 34  1  0  0  0
 15 35  1  0  0  0
 15 36  1  0  0  0
 16 22  1  0  0  0
 16 37  1  0  0  0
 16 38  1  0  0  0
 17 39  1  0  0  0
 17 40  1  0  0  0
 17 41  1  0  0  0
 18 42  1  0  0  0
 18 43  1  0  0  0
 18 44  1  0  0  0
 19 45  1  0  0  0
 19 46  1  0  0  0
 19 47  1  0  0  0
 20 26  1  0  0  0
 20 48  1  0  0  0
 21 25  2  0  0  0
 21 49  1  0  0  0
 22 23  1  0  0  0
 22 50  1  0  0  0
 22 51  1  0  0  0
 23 24  1  0  0  0
 23 52  1  0  0  0
 23 53  1  0  0  0
 24 54  1  0  0  0
 24 55  1  0  0  0
 24 56  1  0  0  0
 25 27  1  0  0  0
 25 57  1  0  0  0
 26 27  2  0  0  0
 26 58  1  0  0  0
 27 59  1  0  0  0
M  END
> <chembl_id>
CHEMBL165345

> <chembl_pref_name>
None

> <i_m_ct_stereo_status>
1

> <s_m_source_file>
sdf/inactives_sanitized.sdf

> <i_m_source_file_index>
64

> <i_lp_mmshare_version>
49012

> <i_f3d_flags>
0

> <s_epik_input>
W0NIM11DKFtDSDNdKShbQ0gzXSlPQyg9TylbTkhdW0NAQEhdKFtDSDJdW0NIMl1bQ0gyXVtDSDNdKUMoPU8pQyg9TylOKFtDSDNdKVtDQEhdKFtDSDNdKWMxW2NIXVtjSF1bY0hdW2NIXVtjSF0x

> <s_epik_cmdline>
J2VwaWtfcHl0aG9uJywgJy1waHQnLCAnMC41JywgJy1waCcsICc3LjUnLCAnLW50JywgJy1tYScsICcyMDAnLCAnLWltYWUnLCAnPGluZmlsZS5tYWU+JywgJy1vbWFlJywgJzxvdXRmaWxlLm1hZT4n

> <r_lp_tautomer_probability>
1

> <r_epik_Ionization_Penalty>
  0.0000

> <r_epik_Ionization_Penalty_Charging>
  0.0000

> <r_epik_Ionization_Penalty_Neutral>
  0.0000

> <r_epik_State_Penalty>
 -0.0000

> <r_epik_Charging_Adjusted_Penalty>
0

> <i_epik_Tot_Q>
0

> <i_epik_Tot_abs_Q>
0

> <s_epik_Chemistry_Notes>
This compound has an ester and may undergo hydrolysis at high or low pH.

> <s_lp_Force_Field>
OPLS3e

> <r_lp_Energy>
36.633781

> <b_lp_Chiralities_Consistent>
1

> <s_lp_Variant>
sdf/inactives_sanitized.sdf:64-1

$$$$
sdf/inactives_sanitized.sdf:65
                    3D
 Schrodinger Suite 2020-1.
 34 35  0  0  1  0            999 V2000
    0.0199   -0.0596   -0.0281 C   0  0  0  0  0  0
   -0.6896   -1.2417   -0.3024 C   0  0  0  0  0  0
   -2.0709   -1.2215   -0.4671 C   0  0  0  0  0  0
   -2.7663   -0.0223   -0.3614 C   0  0  0  0  0  0
   -2.0876    1.1677   -0.0893 C   0  0  0  0  0  0
   -0.6889    1.1529    0.0773 C   0  0  0  0  0  0
    1.3934   -0.0243    0.1420 O   0  0  0  0  0  0
    2.1530   -1.2278    0.0642 C   0  0  0  0  0  0
    3.6345   -0.8983    0.3348 C   0  0  2  0  0  0
    4.1271   -0.1453   -0.7611 O   0  0  0  0  0  0
    4.9870   -0.8304   -1.5507 C   0  0  0  0  0  0
    5.1862   -2.0637   -0.9412 N   0  0  0  0  0  0
    4.5486   -2.1089    0.3520 C   0  0  0  0  0  0
    5.4423   -0.3702   -2.5965 O   0  0  0  0  0  0
    6.1772   -3.0299   -1.3936 C   0  0  0  0  0  0
    0.0570    2.4520    0.3842 C   0  0  0  0  0  0
   -2.8895    2.4597    0.0064 C   0  0  0  0  0  0
   -0.1858   -2.1917   -0.3941 H   0  0  0  0  0  0
   -2.6029   -2.1374   -0.6785 H   0  0  0  0  0  0
   -3.8388   -0.0226   -0.4931 H   0  0  0  0  0  0
    2.0357   -1.6973   -0.9149 H   0  0  0  0  0  0
    1.7993   -1.9327    0.8188 H   0  0  0  0  0  0
    3.7409   -0.3315    1.2604 H   0  0  0  0  0  0
    4.0319   -3.0535    0.5261 H   0  0  0  0  0  0
    5.3297   -2.0162    1.1078 H   0  0  0  0  0  0
    6.4264   -2.8902   -2.4465 H   0  0  0  0  0  0
    5.7971   -4.0440   -1.2690 H   0  0  0  0  0  0
    7.0921   -2.9331   -0.8086 H   0  0  0  0  0  0
    0.0944    3.0857   -0.5022 H   0  0  0  0  0  0
    1.0735    2.2916    0.7431 H   0  0  0  0  0  0
   -0.4550    3.0092    1.1690 H   0  0  0  0  0  0
   -2.4575    3.2239   -0.6405 H   0  0  0  0  0  0
   -2.8755    2.8423    1.0273 H   0  0  0  0  0  0
   -3.9276    2.3252   -0.3003 H   0  0  0  0  0  0
  1  6  2  0  0  0
  1  2  1  0  0  0
  1  7  1  0  0  0
  2  3  2  0  0  0
  2 18  1  0  0  0
  3  4  1  0  0  0
  3 19  1  0  0  0
  4  5  2  0  0  0
  4 20  1  0  0  0
  5  6  1  0  0  0
  5 17  1  0  0  0
  6 16  1  0  0  0
  7  8  1  0  0  0
  8  9  1  0  0  0
  8 21  1  0  0  0
  8 22  1  0  0  0
  9 10  1  0  0  0
  9 13  1  0  0  0
  9 23  1  0  0  0
 10 11  1  0  0  0
 11 12  1  0  0  0
 11 14  2  0  0  0
 12 13  1  0  0  0
 12 15  1  0  0  0
 13 24  1  0  0  0
 13 25  1  0  0  0
 15 26  1  0  0  0
 15 27  1  0  0  0
 15 28  1  0  0  0
 16 29  1  0  0  0
 16 30  1  0  0  0
 16 31  1  0  0  0
 17 32  1  0  0  0
 17 33  1  0  0  0
 17 34  1  0  0  0
M  END
> <chembl_id>
CHEMBL397973

> <chembl_pref_name>
None

> <s_m_source_file>
sdf/inactives_sanitized.sdf

> <i_m_source_file_index>
65

> <i_lp_mmshare_version>
49012

> <i_m_ct_stereo_status>
1

> <i_f3d_flags>
0

> <s_epik_input>
W0NIM11jMWMoW0NIM10pW2NIXVtjSF1bY0hdYzFPW0NIMl1bQ0BASF0yT0MoPU8pTihbQ0gyXTIpW0NIM10=

> <s_epik_cmdline>
J2VwaWtfcHl0aG9uJywgJy1waHQnLCAnMC41JywgJy1waCcsICc3LjUnLCAnLW50JywgJy1tYScsICcyMDAnLCAnLWltYWUnLCAnPGluZmlsZS5tYWU+JywgJy1vbWFlJywgJzxvdXRmaWxlLm1hZT4n

> <r_lp_tautomer_probability>
1

> <r_epik_Ionization_Penalty>
  0.0000

> <r_epik_Ionization_Penalty_Charging>
  0.0000

> <r_epik_Ionization_Penalty_Neutral>
  0.0000

> <r_epik_State_Penalty>
 -0.0000

> <r_epik_Charging_Adjusted_Penalty>
0

> <i_epik_Tot_Q>
0

> <i_epik_Tot_abs_Q>
0

> <s_epik_Chemistry_Notes>
This compound has an ester and may undergo hydrolysis at high or low pH.

> <s_lp_Force_Field>
OPLS3e

> <r_lp_Energy>
3.986729

> <b_lp_Chiralities_Consistent>
1

> <s_lp_Variant>
sdf/inactives_sanitized.sdf:65-1

$$$$
sdf/inactives_sanitized.sdf:66
                    3D
 Schrodinger Suite 2020-1.
 70 74  0  0  1  0            999 V2000
   -3.5164    1.6692    0.8454 N   0  0  0  0  0  0
   -4.7141    1.0319    0.9478 C   0  0  0  0  0  0
   -4.9928   -0.2706    0.6821 N   0  0  0  0  0  0
   -3.9561   -1.0400    0.2597 C   0  0  0  0  0  0
   -2.5213    0.8704    0.4271 C   0  0  0  0  0  0
   -2.6657   -0.5061    0.1084 C   0  0  0  0  0  0
   -1.3827   -0.9747   -0.3002 C   0  0  0  0  0  0
   -0.5010    0.0937   -0.2292 C   0  0  0  0  0  0
   -1.1911    1.2113    0.2290 N   0  0  0  0  0  0
   -5.8315    1.8447    1.3976 C   0  0  0  0  0  0
   -6.7217    2.4922    1.7559 N   0  0  0  0  0  0
    0.9769    0.1393   -0.5669 C   0  0  0  0  0  0
    1.7213    0.2463    0.6434 O   0  0  0  0  0  0
    3.0903    0.4208    0.5838 C   0  0  0  0  0  0
   -0.6251    2.5476    0.4259 C   0  0  0  0  0  0
   -0.7258    3.3829   -0.8678 C   0  0  0  0  0  0
   -0.1149    4.8001   -0.7593 C   0  0  0  0  0  0
   -0.4590    5.6499   -2.0053 C   0  0  0  0  0  0
    0.0669    7.0934   -1.8687 C   0  0  0  0  0  0
    1.5872    7.1199   -1.6004 C   0  0  0  0  0  0
    1.9939    6.2042   -0.4257 C   0  0  0  0  0  0
    1.4259    4.7800   -0.5922 C   0  0  0  0  0  0
    3.8353    0.4462   -0.6023 C   0  0  0  0  0  0
    5.2156    0.6217   -0.5608 C   0  0  0  0  0  0
    5.8964    0.7648    0.6601 C   0  0  0  0  0  0
    5.1321    0.7523    1.8377 C   0  0  0  0  0  0
    3.7518    0.5780    1.7989 C   0  0  0  0  0  0
    7.2837    0.9521    0.7076 N   0  0  0  0  0  0
    8.0841    0.3479    1.7924 C   0  0  0  0  0  0
    9.4975    0.9327    2.0050 C   0  0  0  0  0  0
   10.1890    0.9814    0.7128 N   0  0  0  0  0  0
    9.4971    1.7461   -0.3295 C   0  0  0  0  0  0
    8.0766    1.1671   -0.5195 C   0  0  0  0  0  0
   11.2877    0.2166    0.4740 C   0  0  0  0  0  0
   12.0198    0.3473   -0.8657 C   0  0  0  0  0  0
   11.7850   -0.5276    1.3209 O   0  0  0  0  0  0
   -4.1686   -2.0768    0.0441 H   0  0  0  0  0  0
   -1.1183   -1.9727   -0.6181 H   0  0  0  0  0  0
    1.2593   -0.7802   -1.0824 H   0  0  0  0  0  0
    1.1835    0.9808   -1.2298 H   0  0  0  0  0  0
   -1.1547    3.0413    1.2421 H   0  0  0  0  0  0
    0.4047    2.4467    0.7638 H   0  0  0  0  0  0
   -0.2513    2.8501   -1.6934 H   0  0  0  0  0  0
   -1.7802    3.4710   -1.1369 H   0  0  0  0  0  0
   -0.5452    5.3006    0.1106 H   0  0  0  0  0  0
   -0.0602    5.1773   -2.9048 H   0  0  0  0  0  0
   -1.5392    5.6659   -2.1566 H   0  0  0  0  0  0
   -0.1611    7.6601   -2.7721 H   0  0  0  0  0  0
   -0.4555    7.5963   -1.0533 H   0  0  0  0  0  0
    2.1145    6.8008   -2.5007 H   0  0  0  0  0  0
    1.9134    8.1421   -1.4053 H   0  0  0  0  0  0
    3.0808    6.1650   -0.3447 H   0  0  0  0  0  0
    1.6341    6.6325    0.5111 H   0  0  0  0  0  0
    1.7128    4.1756    0.2675 H   0  0  0  0  0  0
    1.8876    4.2798   -1.4452 H   0  0  0  0  0  0
    3.3642    0.3253   -1.5659 H   0  0  0  0  0  0
    5.7443    0.6215   -1.5018 H   0  0  0  0  0  0
    5.5866    0.8947    2.8057 H   0  0  0  0  0  0
    3.1908    0.5695    2.7222 H   0  0  0  0  0  0
    7.5657    0.3524    2.7486 H   0  0  0  0  0  0
    8.2173   -0.6943    1.4968 H   0  0  0  0  0  0
    9.4129    1.9457    2.4002 H   0  0  0  0  0  0
   10.0351    0.3514    2.7557 H   0  0  0  0  0  0
    9.4171    2.7821    0.0020 H   0  0  0  0  0  0
   10.0198    1.7689   -1.2847 H   0  0  0  0  0  0
    8.1921    0.1799   -0.9706 H   0  0  0  0  0  0
    7.5369    1.8147   -1.2110 H   0  0  0  0  0  0
   11.4069   -0.0444   -1.6779 H   0  0  0  0  0  0
   12.9540   -0.2152   -0.8503 H   0  0  0  0  0  0
   12.2635    1.3892   -1.0755 H   0  0  0  0  0  0
  1  2  2  0  0  0
  1  5  1  0  0  0
  2 10  1  0  0  0
  2  3  1  0  0  0
  3  4  2  0  0  0
  4  6  1  0  0  0
  4 37  1  0  0  0
  5  9  1  0  0  0
  5  6  2  0  0  0
  6  7  1  0  0  0
  7  8  2  0  0  0
  7 38  1  0  0  0
  8  9  1  0  0  0
  8 12  1  0  0  0
  9 15  1  0  0  0
 10 11  3  0  0  0
 12 13  1  0  0  0
 12 39  1  0  0  0
 12 40  1  0  0  0
 13 14  1  0  0  0
 14 23  2  0  0  0
 14 27  1  0  0  0
 15 16  1  0  0  0
 15 41  1  0  0  0
 15 42  1  0  0  0
 16 17  1  0  0  0
 16 43  1  0  0  0
 16 44  1  0  0  0
 17 18  1  0  0  0
 17 22  1  0  0  0
 17 45  1  0  0  0
 18 19  1  0  0  0
 18 46  1  0  0  0
 18 47  1  0  0  0
 19 20  1  0  0  0
 19 48  1  0  0  0
 19 49  1  0  0  0
 20 21  1  0  0  0
 20 50  1  0  0  0
 20 51  1  0  0  0
 21 22  1  0  0  0
 21 52  1  0  0  0
 21 53  1  0  0  0
 22 54  1  0  0  0
 22 55  1  0  0  0
 23 24  1  0  0  0
 23 56  1  0  0  0
 24 25  2  0  0  0
 24 57  1  0  0  0
 25 26  1  0  0  0
 25 28  1  0  0  0
 26 27  2  0  0  0
 26 58  1  0  0  0
 27 59  1  0  0  0
 28 29  1  0  0  0
 28 33  1  0  0  0
 29 30  1  0  0  0
 29 60  1  0  0  0
 29 61  1  0  0  0
 30 31  1  0  0  0
 30 62  1  0  0  0
 30 63  1  0  0  0
 31 32  1  0  0  0
 31 34  1  0  0  0
 32 33  1  0  0  0
 32 64  1  0  0  0
 32 65  1  0  0  0
 33 66  1  0  0  0
 33 67  1  0  0  0
 34 35  1  0  0  0
 34 36  2  0  0  0
 35 68  1  0  0  0
 35 69  1  0  0  0
 35 70  1  0  0  0
M  END
> <chembl_id>
CHEMBL481170

> <chembl_pref_name>
None

> <s_m_source_file>
sdf/inactives_sanitized.sdf

> <i_m_source_file_index>
66

> <i_lp_mmshare_version>
49012

> <i_m_ct_stereo_status>
1

> <i_f3d_flags>
0

> <s_epik_input>
W0NIMl0xW0NIMl1bQ0gyXVtDSDJdW0NIMl1bQ0hdMVtDSDJdW0NIMl1uMmMoW2NIXWMoYzIzKVtjSF1uYyhuMylDI04pW0NIMl1PYzRbY0hdW2NIXWMoW2NIXVtjSF00KU41W0NIMl1bQ0gyXU4oW0NIMl1bQ0gyXTUpQyg9TylbQ0gzXQ==

> <s_epik_cmdline>
J2VwaWtfcHl0aG9uJywgJy1waHQnLCAnMC41JywgJy1waCcsICc3LjUnLCAnLW50JywgJy1tYScsICcyMDAnLCAnLWltYWUnLCAnPGluZmlsZS5tYWU+JywgJy1vbWFlJywgJzxvdXRmaWxlLm1hZT4n

> <r_lp_tautomer_probability>
1

> <r_epik_Ionization_Penalty>
  0.0029

> <r_epik_Ionization_Penalty_Charging>
  0.0000

> <r_epik_Ionization_Penalty_Neutral>
  0.0029

> <r_epik_State_Penalty>
 -0.0000

> <r_epik_Charging_Adjusted_Penalty>
0

> <i_epik_Tot_Q>
0

> <i_epik_Tot_abs_Q>
0

> <s_lp_Force_Field>
OPLS3e

> <r_lp_Energy>
63.514005

> <b_lp_Chiralities_Consistent>
1

> <s_lp_Variant>
sdf/inactives_sanitized.sdf:66-1

$$$$
sdf/inactives_sanitized.sdf:67
                    3D
 Schrodinger Suite 2020-1.
 43 42  0  0  1  0            999 V2000
   -2.1464    3.9818   -1.9322 C   0  0  0  0  0  0
   -1.2569    1.8008   -1.1282 C   0  0  0  0  0  0
   -0.9847    1.2130    0.1003 N   0  0  0  0  0  0
   -0.3597   -0.1162    0.1663 C   0  0  2  0  0  0
   -0.8320   -0.6817    1.5060 C   0  0  0  0  0  0
   -2.3573   -1.1305    1.5727 C   0  0  0  0  0  0
   -0.0929   -0.8307    2.4847 O   0  0  0  0  0  0
   -3.0978   -1.0427    0.5914 O   0  0  0  0  0  0
   -2.7031   -1.5945    2.7874 N   0  0  0  0  0  0
   -1.7412    3.0528   -0.9091 O   0  0  0  0  0  0
   -1.0854    1.2878   -2.2359 O   0  0  0  0  0  0
    1.1886   -0.0431    0.0386 C   0  0  0  0  0  0
    1.8903   -1.4142   -0.0624 C   0  0  0  0  0  0
    3.4128   -1.2915   -0.2475 C   0  0  0  0  0  0
    4.1149   -2.6524   -0.3482 C   0  0  0  0  0  0
   -3.3302    3.4263   -2.7626 C   0  0  0  0  0  0
   -0.9582    4.3665   -2.8484 C   0  0  0  0  0  0
   -2.6129    5.2285   -1.1531 C   0  0  0  0  0  0
   -4.0318   -2.0769    3.1453 C   0  0  0  0  0  0
   -0.9527    1.8001    0.9208 H   0  0  0  0  0  0
   -0.7355   -0.7603   -0.6332 H   0  0  0  0  0  0
   -2.0019   -1.6182    3.5140 H   0  0  0  0  0  0
    1.4319    0.5272   -0.8597 H   0  0  0  0  0  0
    1.6085    0.5371    0.8629 H   0  0  0  0  0  0
    1.6889   -2.0042    0.8323 H   0  0  0  0  0  0
    1.4706   -1.9724   -0.9008 H   0  0  0  0  0  0
    3.6273   -0.7122   -1.1468 H   0  0  0  0  0  0
    3.8392   -0.7312    0.5858 H   0  0  0  0  0  0
    5.1901   -2.5269   -0.4785 H   0  0  0  0  0  0
    3.7439   -3.2273   -1.1973 H   0  0  0  0  0  0
    3.9583   -3.2463    0.5528 H   0  0  0  0  0  0
   -3.7261    4.1806   -3.4437 H   0  0  0  0  0  0
   -4.1493    3.1052   -2.1178 H   0  0  0  0  0  0
   -3.0429    2.5672   -3.3687 H   0  0  0  0  0  0
   -0.6179    3.5292   -3.4575 H   0  0  0  0  0  0
   -0.1027    4.7077   -2.2641 H   0  0  0  0  0  0
   -1.2291    5.1713   -3.5328 H   0  0  0  0  0  0
   -2.9522    6.0188   -1.8241 H   0  0  0  0  0  0
   -1.8099    5.6413   -0.5406 H   0  0  0  0  0  0
   -3.4391    4.9932   -0.4805 H   0  0  0  0  0  0
   -4.4140   -1.5092    3.9938 H   0  0  0  0  0  0
   -3.9776   -3.1258    3.4368 H   0  0  0  0  0  0
   -4.7514   -1.9894    2.3300 H   0  0  0  0  0  0
  1 10  1  0  0  0
  1 16  1  0  0  0
  1 17  1  0  0  0
  1 18  1  0  0  0
  2 11  2  0  0  0
  2  3  1  0  0  0
  2 10  1  0  0  0
  3  4  1  0  0  0
  3 20  1  0  0  0
  4 12  1  0  0  0
  4  5  1  0  0  0
  4 21  1  0  0  0
  5  6  1  0  0  0
  5  7  2  0  0  0
  6  8  2  0  0  0
  6  9  1  0  0  0
  9 19  1  0  0  0
  9 22  1  0  0  0
 12 13  1  0  0  0
 12 23  1  0  0  0
 12 24  1  0  0  0
 13 14  1  0  0  0
 13 25  1  0  0  0
 13 26  1  0  0  0
 14 15  1  0  0  0
 14 27  1  0  0  0
 14 28  1  0  0  0
 15 29  1  0  0  0
 15 30  1  0  0  0
 15 31  1  0  0  0
 16 32  1  0  0  0
 16 33  1  0  0  0
 16 34  1  0  0  0
 17 35  1  0  0  0
 17 36  1  0  0  0
 17 37  1  0  0  0
 18 38  1  0  0  0
 18 39  1  0  0  0
 18 40  1  0  0  0
 19 41  1  0  0  0
 19 42  1  0  0  0
 19 43  1  0  0  0
M  END
> <chembl_id>
CHEMBL159905

> <chembl_pref_name>
None

> <i_m_ct_stereo_status>
1

> <s_m_source_file>
sdf/inactives_sanitized.sdf

> <i_m_source_file_index>
67

> <i_lp_mmshare_version>
49012

> <i_f3d_flags>
0

> <s_epik_input>
W0NIM11DKFtDSDNdKShbQ0gzXSlPQyg9TylbTkhdW0NASF0oQyg9TylDKD1PKVtOSF1bQ0gzXSlbQ0gyXVtDSDJdW0NIMl1bQ0gzXQ==

> <s_epik_cmdline>
J2VwaWtfcHl0aG9uJywgJy1waHQnLCAnMC41JywgJy1waCcsICc3LjUnLCAnLW50JywgJy1tYScsICcyMDAnLCAnLWltYWUnLCAnPGluZmlsZS5tYWU+JywgJy1vbWFlJywgJzxvdXRmaWxlLm1hZT4n

> <r_lp_tautomer_probability>
1

> <r_epik_Ionization_Penalty>
  0.0000

> <r_epik_Ionization_Penalty_Charging>
  0.0000

> <r_epik_Ionization_Penalty_Neutral>
  0.0000

> <r_epik_State_Penalty>
 -0.0000

> <r_epik_Charging_Adjusted_Penalty>
0

> <i_epik_Tot_Q>
0

> <i_epik_Tot_abs_Q>
0

> <s_epik_Chemistry_Notes>
This compound has an ester and may undergo hydrolysis at high or low pH.

> <s_lp_Force_Field>
OPLS3e

> <r_lp_Energy>
13.045649

> <b_lp_Chiralities_Consistent>
1

> <s_lp_Variant>
sdf/inactives_sanitized.sdf:67-1

$$$$
sdf/inactives_sanitized.sdf:68
                    3D
 Schrodinger Suite 2020-1.
 73 75  0  0  1  0            999 V2000
   -0.8563   -1.4941   -0.1537 C   0  0  0  0  0  0
    0.0243   -0.2231    0.2173 C   0  0  0  0  0  0
    3.0230   -1.3913   -1.4870 C   0  0  0  0  0  0
   -2.1491   -1.1808   -0.3648 N   0  0  0  0  0  0
    1.9064   -0.6394   -1.1475 N   0  0  0  0  0  0
    1.5358   -0.4485    0.2621 C   0  0  1  0  0  0
    4.2678   -1.9004   -3.5915 C   0  0  0  0  0  0
    3.1869   -1.3216   -2.8325 O   0  0  0  0  0  0
   -3.2035   -2.1257   -0.7532 C   0  0  1  0  0  0
   -0.5166    0.8585    0.4693 O   0  0  0  0  0  0
   -0.3630   -2.6203   -0.2359 O   0  0  0  0  0  0
    3.7525   -2.0075   -0.7078 O   0  0  0  0  0  0
   -4.6218   -1.6271   -0.4476 C   0  0  0  0  0  0
    3.9170   -1.4661   -5.0535 C   0  0  0  0  0  0
    3.7785    0.0387   -5.2933 C   0  0  0  0  0  0
    2.3182    0.7256    0.9163 C   0  0  0  0  0  0
    5.6604   -1.3487   -3.1429 C   0  0  0  0  0  0
    4.2552   -3.4590   -3.4865 C   0  0  0  0  0  0
   -3.0709   -2.5582   -2.2284 C   0  0  0  0  0  0
   -4.9134   -0.2620   -0.3108 C   0  0  0  0  0  0
   -5.6435   -2.5676   -0.2718 C   0  0  0  0  0  0
    4.8763    0.7820   -5.7366 C   0  0  0  0  0  0
    2.5491    0.6705   -5.0803 C   0  0  0  0  0  0
    2.1043    0.8736    2.4377 C   0  0  0  0  0  0
    2.9500    2.0048    3.0489 C   0  0  0  0  0  0
    5.4385   -4.1275   -4.2209 C   0  0  0  0  0  0
    6.8404   -2.0129   -3.8846 C   0  0  0  0  0  0
    2.7379    2.1616    4.5607 C   0  0  0  0  0  0
   -6.2095    0.1523   -0.0160 C   0  0  0  0  0  0
   -6.9392   -2.1532    0.0241 C   0  0  0  0  0  0
    2.4219    2.0400   -5.2959 C   0  0  0  0  0  0
    4.7492    2.1517   -5.9523 C   0  0  0  0  0  0
    6.7964   -3.5493   -3.7781 C   0  0  0  0  0  0
    3.5230    2.7746   -5.7301 C   0  0  0  0  0  0
   -7.2167   -0.7947    0.1499 C   0  0  0  0  0  0
   -2.4307   -0.2166   -0.2615 H   0  0  0  0  0  0
    1.5267   -0.0028   -1.8328 H   0  0  0  0  0  0
    1.7338   -1.3550    0.8402 H   0  0  0  0  0  0
   -3.0658   -3.0108   -0.1264 H   0  0  0  0  0  0
    4.6508   -1.8535   -5.7602 H   0  0  0  0  0  0
    2.9820   -1.9379   -5.3623 H   0  0  0  0  0  0
    3.3836    0.5673    0.7403 H   0  0  0  0  0  0
    2.0855    1.6639    0.4085 H   0  0  0  0  0  0
    5.7112   -0.2659   -3.2571 H   0  0  0  0  0  0
    5.8220   -1.5544   -2.0851 H   0  0  0  0  0  0
    4.3418   -3.7655   -2.4443 H   0  0  0  0  0  0
    3.3132   -3.8652   -3.8571 H   0  0  0  0  0  0
   -3.8017   -3.3260   -2.4849 H   0  0  0  0  0  0
   -2.0847   -2.9729   -2.4395 H   0  0  0  0  0  0
   -3.2242   -1.7153   -2.9035 H   0  0  0  0  0  0
   -4.1452    0.4863   -0.4391 H   0  0  0  0  0  0
   -5.4349   -3.6236   -0.3658 H   0  0  0  0  0  0
    5.8285    0.3023   -5.9097 H   0  0  0  0  0  0
    1.6941    0.1026   -4.7428 H   0  0  0  0  0  0
    1.0517    1.0631    2.6506 H   0  0  0  0  0  0
    2.3538   -0.0677    2.9297 H   0  0  0  0  0  0
    4.0074    1.8180    2.8552 H   0  0  0  0  0  0
    2.7111    2.9482    2.5556 H   0  0  0  0  0  0
    5.4228   -5.2028   -4.0390 H   0  0  0  0  0  0
    5.3238   -4.0095   -5.2987 H   0  0  0  0  0  0
    6.8347   -1.7194   -4.9345 H   0  0  0  0  0  0
    7.7833   -1.6443   -3.4787 H   0  0  0  0  0  0
    3.3542    2.9684    4.9584 H   0  0  0  0  0  0
    3.0035    1.2486    5.0944 H   0  0  0  0  0  0
    1.6981    2.3952    4.7920 H   0  0  0  0  0  0
   -6.4326    1.2044    0.0841 H   0  0  0  0  0  0
   -7.7253   -2.8821    0.1565 H   0  0  0  0  0  0
    1.4743    2.5301   -5.1272 H   0  0  0  0  0  0
    5.5972    2.7288   -6.2905 H   0  0  0  0  0  0
    6.9928   -3.8438   -2.7460 H   0  0  0  0  0  0
    7.5983   -3.9858   -4.3748 H   0  0  0  0  0  0
    3.4243    3.8370   -5.8973 H   0  0  0  0  0  0
   -8.2219   -0.4727    0.3791 H   0  0  0  0  0  0
  1  2  1  0  0  0
  1  4  1  0  0  0
  1 11  2  0  0  0
  2  6  1  0  0  0
  2 10  2  0  0  0
  3  5  1  0  0  0
  3  8  1  0  0  0
  3 12  2  0  0  0
  4  9  1  0  0  0
  4 36  1  0  0  0
  5  6  1  0  0  0
  5 37  1  0  0  0
  6 16  1  0  0  0
  6 38  1  0  0  0
  7  8  1  0  0  0
  7 14  1  0  0  0
  7 17  1  0  0  0
  7 18  1  0  0  0
  9 13  1  0  0  0
  9 19  1  0  0  0
  9 39  1  0  0  0
 13 20  2  0  0  0
 13 21  1  0  0  0
 14 15  1  0  0  0
 14 40  1  0  0  0
 14 41  1  0  0  0
 15 22  2  0  0  0
 15 23  1  0  0  0
 16 24  1  0  0  0
 16 42  1  0  0  0
 16 43  1  0  0  0
 17 27  1  0  0  0
 17 44  1  0  0  0
 17 45  1  0  0  0
 18 26  1  0  0  0
 18 46  1  0  0  0
 18 47  1  0  0  0
 19 48  1  0  0  0
 19 49  1  0  0  0
 19 50  1  0  0  0
 20 29  1  0  0  0
 20 51  1  0  0  0
 21 30  2  0  0  0
 21 52  1  0  0  0
 22 32  1  0  0  0
 22 53  1  0  0  0
 23 31  2  0  0  0
 23 54  1  0  0  0
 24 25  1  0  0  0
 24 55  1  0  0  0
 24 56  1  0  0  0
 25 28  1  0  0  0
 25 57  1  0  0  0
 25 58  1  0  0  0
 26 33  1  0  0  0
 26 59  1  0  0  0
 26 60  1  0  0  0
 27 33  1  0  0  0
 27 61  1  0  0  0
 27 62  1  0  0  0
 28 63  1  0  0  0
 28 64  1  0  0  0
 28 65  1  0  0  0
 29 35  2  0  0  0
 29 66  1  0  0  0
 30 35  1  0  0  0
 30 67  1  0  0  0
 31 34  1  0  0  0
 31 68  1  0  0  0
 32 34  2  0  0  0
 32 69  1  0  0  0
 33 70  1  0  0  0
 33 71  1  0  0  0
 34 72  1  0  0  0
 35 73  1  0  0  0
M  END
> <chembl_id>
CHEMBL364323

> <chembl_pref_name>
None

> <i_m_ct_stereo_status>
1

> <s_m_source_file>
sdf/inactives_sanitized.sdf

> <i_m_source_file_index>
68

> <i_lp_mmshare_version>
49012

> <i_f3d_flags>
0

> <s_epik_input>
W2NIXTFbY0hdW2NIXVtjSF1bY0hdYzFbQ0BASF0oW0NIM10pW05IXUMoPU8pQyg9TylbQ0BIXShbQ0gyXVtDSDJdW0NIMl1bQ0gzXSlbTkhdQyg9TylPQzIoW0NIMl1bQ0gyXVtDSDJdW0NIMl1bQ0gyXTIpW0NIMl1jM1tjSF1bY0hdW2NIXVtjSF1bY0hdMw==

> <s_epik_cmdline>
J2VwaWtfcHl0aG9uJywgJy1waHQnLCAnMC41JywgJy1waCcsICc3LjUnLCAnLW50JywgJy1tYScsICcyMDAnLCAnLWltYWUnLCAnPGluZmlsZS5tYWU+JywgJy1vbWFlJywgJzxvdXRmaWxlLm1hZT4n

> <r_lp_tautomer_probability>
1

> <r_epik_Ionization_Penalty>
  0.0000

> <r_epik_Ionization_Penalty_Charging>
  0.0000

> <r_epik_Ionization_Penalty_Neutral>
  0.0000

> <r_epik_State_Penalty>
 -0.0000

> <r_epik_Charging_Adjusted_Penalty>
0

> <i_epik_Tot_Q>
0

> <i_epik_Tot_abs_Q>
0

> <s_epik_Chemistry_Notes>
This compound has an ester and may undergo hydrolysis at high or low pH.

> <s_lp_Force_Field>
OPLS3e

> <r_lp_Energy>
48.215445

> <b_lp_Chiralities_Consistent>
1

> <s_lp_Variant>
sdf/inactives_sanitized.sdf:68-1

$$$$
sdf/inactives_sanitized.sdf:69
                    3D
 Schrodinger Suite 2020-1.
 64 65  0  0  1  0            999 V2000
    0.9780   -0.9852   -2.2404 C   0  0  0  0  0  0
    1.3772   -1.5003   -0.7988 C   0  0  0  0  0  0
   -0.9072    0.8269    0.0815 C   0  0  0  0  0  0
    0.4069   -1.9668   -2.9733 N   0  0  0  0  0  0
   -0.2536   -0.6794   -4.9113 N   0  0  0  0  0  0
   -0.1631   -1.8715   -4.2556 C   0  0  0  0  0  0
   -0.2603   -0.3342    0.4887 N   0  0  0  0  0  0
    1.1979   -0.4985    0.3445 C   0  0  1  0  0  0
   -2.2401    0.6309    0.1744 O   0  0  0  0  0  0
   -3.1943    1.5630   -0.3523 C   0  0  0  0  0  0
   -0.8458   -0.6393   -6.1361 C   0  0  0  0  0  0
    1.8033   -2.6498   -0.6526 O   0  0  0  0  0  0
    1.1645    0.1882   -2.5666 O   0  0  0  0  0  0
   -0.3740    1.8595   -0.3303 O   0  0  0  0  0  0
   -1.3689   -1.8139   -6.7563 C   0  0  0  0  0  0
   -1.2572   -3.0394   -6.0558 C   0  0  0  0  0  0
   -0.6536   -3.0590   -4.8004 C   0  0  0  0  0  0
   -4.3367    1.7159    0.6986 C   0  0  0  0  0  0
   -3.6470    1.1178   -1.7814 C   0  0  0  0  0  0
    1.8520   -0.9884    1.6630 C   0  0  0  0  0  0
   -0.9468    0.6026   -6.8089 C   0  0  0  0  0  0
   -1.9747   -1.7123   -8.0324 C   0  0  0  0  0  0
   -4.3171   -0.2719   -1.8097 C   0  0  0  0  0  0
   -2.5107    1.1898   -2.8210 C   0  0  0  0  0  0
   -5.4838    2.6328    0.2246 C   0  0  0  0  0  0
   -3.7996    2.2211    2.0555 C   0  0  0  0  0  0
    1.7307    0.0246    2.8196 C   0  0  0  0  0  0
    2.4265   -0.4512    4.1069 C   0  0  0  0  0  0
    2.3016    0.5536    5.2600 C   0  0  0  0  0  0
   -1.5491    0.6702   -8.0634 C   0  0  0  0  0  0
   -2.0576   -0.4757   -8.6691 C   0  0  0  0  0  0
    0.3615   -2.8826   -2.5510 H   0  0  0  0  0  0
   -0.8062   -1.1177    0.8158 H   0  0  0  0  0  0
    1.6942    0.4378    0.0764 H   0  0  0  0  0  0
   -2.7397    2.5517   -0.4445 H   0  0  0  0  0  0
   -1.6435   -3.9481   -6.4947 H   0  0  0  0  0  0
   -0.5749   -3.9924   -4.2611 H   0  0  0  0  0  0
   -4.7674    0.7303    0.8807 H   0  0  0  0  0  0
   -4.3861    1.8388   -2.1298 H   0  0  0  0  0  0
    1.3966   -1.9300    1.9775 H   0  0  0  0  0  0
    2.9101   -1.1943    1.4896 H   0  0  0  0  0  0
   -0.5550    1.4967   -6.3444 H   0  0  0  0  0  0
   -2.3719   -2.5976   -8.5078 H   0  0  0  0  0  0
   -3.6317   -1.0531   -1.4787 H   0  0  0  0  0  0
   -4.6453   -0.5302   -2.8172 H   0  0  0  0  0  0
   -5.1985   -0.3084   -1.1696 H   0  0  0  0  0  0
   -1.7459    0.4364   -2.6348 H   0  0  0  0  0  0
   -2.0252    2.1663   -2.8134 H   0  0  0  0  0  0
   -2.8869    1.0223   -3.8310 H   0  0  0  0  0  0
   -5.1156    3.6201   -0.0570 H   0  0  0  0  0  0
   -6.2296    2.7710    1.0083 H   0  0  0  0  0  0
   -6.0113    2.2142   -0.6319 H   0  0  0  0  0  0
   -3.3320    3.2017    1.9580 H   0  0  0  0  0  0
   -3.0569    1.5417    2.4745 H   0  0  0  0  0  0
   -4.5990    2.3081    2.7923 H   0  0  0  0  0  0
    2.1595    0.9794    2.5105 H   0  0  0  0  0  0
    0.6776    0.2145    3.0330 H   0  0  0  0  0  0
    2.0046   -1.4072    4.4201 H   0  0  0  0  0  0
    3.4831   -0.6344    3.9068 H   0  0  0  0  0  0
    2.8068    0.1852    6.1533 H   0  0  0  0  0  0
    1.2573    0.7299    5.5198 H   0  0  0  0  0  0
    2.7492    1.5132    4.9994 H   0  0  0  0  0  0
   -1.6224    1.6205   -8.5715 H   0  0  0  0  0  0
   -2.5210   -0.4044   -9.6422 H   0  0  0  0  0  0
  1  2  1  0  0  0
  1  4  1  0  0  0
  1 13  2  0  0  0
  2  8  1  0  0  0
  2 12  2  0  0  0
  3  7  1  0  0  0
  3  9  1  0  0  0
  3 14  2  0  0  0
  4  6  1  0  0  0
  4 32  1  0  0  0
  5  6  2  0  0  0
  5 11  1  0  0  0
  6 17  1  0  0  0
  7  8  1  0  0  0
  7 33  1  0  0  0
  8 20  1  0  0  0
  8 34  1  0  0  0
  9 10  1  0  0  0
 10 18  1  0  0  0
 10 19  1  0  0  0
 10 35  1  0  0  0
 11 21  2  0  0  0
 11 15  1  0  0  0
 15 16  1  0  0  0
 15 22  2  0  0  0
 16 17  2  0  0  0
 16 36  1  0  0  0
 17 37  1  0  0  0
 18 25  1  0  0  0
 18 26  1  0  0  0
 18 38  1  0  0  0
 19 23  1  0  0  0
 19 24  1  0  0  0
 19 39  1  0  0  0
 20 27  1  0  0  0
 20 40  1  0  0  0
 20 41  1  0  0  0
 21 30  1  0  0  0
 21 42  1  0  0  0
 22 31  1  0  0  0
 22 43  1  0  0  0
 23 44  1  0  0  0
 23 45  1  0  0  0
 23 46  1  0  0  0
 24 47  1  0  0  0
 24 48  1  0  0  0
 24 49  1  0  0  0
 25 50  1  0  0  0
 25 51  1  0  0  0
 25 52  1  0  0  0
 26 53  1  0  0  0
 26 54  1  0  0  0
 26 55  1  0  0  0
 27 28  1  0  0  0
 27 56  1  0  0  0
 27 57  1  0  0  0
 28 29  1  0  0  0
 28 58  1  0  0  0
 28 59  1  0  0  0
 29 60  1  0  0  0
 29 61  1  0  0  0
 29 62  1  0  0  0
 30 31  2  0  0  0
 30 63  1  0  0  0
 31 64  1  0  0  0
M  END
> <chembl_id>
CHEMBL153943

> <chembl_pref_name>
None

> <i_m_ct_stereo_status>
1

> <s_m_source_file>
sdf/inactives_sanitized.sdf

> <i_m_source_file_index>
69

> <i_lp_mmshare_version>
49012

> <i_f3d_flags>
0

> <s_epik_input>
W0NIM11bQ0hdKFtDSDNdKVtDSF0oW0NIXShbQ0gzXSlbQ0gzXSlPQyg9TylbTkhdW0NAQEhdKFtDSDJdW0NIMl1bQ0gyXVtDSDNdKUMoPU8pQyg9TylbTkhdYyhuMSlbY0hdW2NIXWMoYzEyKVtjSF1bY0hdW2NIXVtjSF0y

> <s_epik_cmdline>
J2VwaWtfcHl0aG9uJywgJy1waHQnLCAnMC41JywgJy1waCcsICc3LjUnLCAnLW50JywgJy1tYScsICcyMDAnLCAnLWltYWUnLCAnPGluZmlsZS5tYWU+JywgJy1vbWFlJywgJzxvdXRmaWxlLm1hZT4n

> <r_lp_tautomer_probability>
1

> <r_epik_Ionization_Penalty>
  0.0000

> <r_epik_Ionization_Penalty_Charging>
  0.0000

> <r_epik_Ionization_Penalty_Neutral>
  0.0000

> <r_epik_State_Penalty>
 -0.0000

> <r_epik_Charging_Adjusted_Penalty>
0

> <i_epik_Tot_Q>
0

> <i_epik_Tot_abs_Q>
0

> <s_epik_Chemistry_Notes>
This compound has an ester and may undergo hydrolysis at high or low pH.

> <s_lp_Force_Field>
OPLS3e

> <r_lp_Energy>
43.735712

> <b_lp_Chiralities_Consistent>
1

> <s_lp_Variant>
sdf/inactives_sanitized.sdf:69-1

$$$$
sdf/inactives_sanitized.sdf:70
                    3D
 Schrodinger Suite 2020-1.
 33 32  0  0  1  0            999 V2000
   -1.3209    1.7807   -1.0909 C   0  0  0  0  0  0
   -0.3223    1.3683   -0.2154 N   0  0  0  0  0  0
   -1.5213    3.1152   -0.9200 O   0  0  0  0  0  0
    0.1221   -0.0392   -0.1578 C   0  0  2  0  0  0
   -1.9284    1.0664   -1.8907 O   0  0  0  0  0  0
   -2.4759    3.9151   -1.6435 C   0  0  0  0  0  0
   -1.5520   -0.2483    1.6234 O   0  0  0  0  0  0
   -0.7149   -0.7744    0.8870 C   0  0  0  0  0  0
    1.6554   -0.1400    0.1230 C   0  0  0  0  0  0
   -3.9265    3.4340   -1.3903 C   0  0  0  0  0  0
   -2.1565    3.9389   -3.1588 C   0  0  0  0  0  0
   -2.3028    5.3345   -1.0647 C   0  0  0  0  0  0
    2.4938    0.6344   -0.9143 C   0  0  0  0  0  0
    2.1869   -1.5850    0.2448 C   0  0  0  0  0  0
    0.1159    2.0423    0.3949 H   0  0  0  0  0  0
   -0.0458   -0.5211   -1.1239 H   0  0  0  0  0  0
   -0.5278   -1.8469    0.9369 H   0  0  0  0  0  0
    1.8504    0.3362    1.0862 H   0  0  0  0  0  0
   -4.6540    4.1201   -1.8257 H   0  0  0  0  0  0
   -4.1397    3.3642   -0.3229 H   0  0  0  0  0  0
   -4.1170    2.4511   -1.8209 H   0  0  0  0  0  0
   -2.3038    2.9658   -3.6271 H   0  0  0  0  0  0
   -1.1208    4.2294   -3.3396 H   0  0  0  0  0  0
   -2.7931    4.6491   -3.6877 H   0  0  0  0  0  0
   -2.9866    6.0450   -1.5311 H   0  0  0  0  0  0
   -1.2888    5.7075   -1.2168 H   0  0  0  0  0  0
   -2.4929    5.3542    0.0096 H   0  0  0  0  0  0
    2.3180    0.2573   -1.9222 H   0  0  0  0  0  0
    3.5608    0.5450   -0.7077 H   0  0  0  0  0  0
    2.2567    1.6985   -0.9118 H   0  0  0  0  0  0
    1.9579   -2.1655   -0.6493 H   0  0  0  0  0  0
    1.7607   -2.1065    1.1018 H   0  0  0  0  0  0
    3.2691   -1.5965    0.3776 H   0  0  0  0  0  0
  1  2  1  0  0  0
  1  3  1  0  0  0
  1  5  2  0  0  0
  2  4  1  0  0  0
  2 15  1  0  0  0
  3  6  1  0  0  0
  4  8  1  0  0  0
  4  9  1  0  0  0
  4 16  1  0  0  0
  6 10  1  0  0  0
  6 11  1  0  0  0
  6 12  1  0  0  0
  7  8  2  0  0  0
  8 17  1  0  0  0
  9 13  1  0  0  0
  9 14  1  0  0  0
  9 18  1  0  0  0
 10 19  1  0  0  0
 10 20  1  0  0  0
 10 21  1  0  0  0
 11 22  1  0  0  0
 11 23  1  0  0  0
 11 24  1  0  0  0
 12 25  1  0  0  0
 12 26  1  0  0  0
 12 27  1  0  0  0
 13 28  1  0  0  0
 13 29  1  0  0  0
 13 30  1  0  0  0
 14 31  1  0  0  0
 14 32  1  0  0  0
 14 33  1  0  0  0
M  END
> <chembl_id>
CHEMBL92826

> <chembl_pref_name>
None

> <i_m_ct_stereo_status>
1

> <s_m_source_file>
sdf/inactives_sanitized.sdf

> <i_m_source_file_index>
70

> <i_lp_mmshare_version>
49012

> <i_f3d_flags>
0

> <s_epik_input>
W0NIM11DKFtDSDNdKShbQ0gzXSlPQyg9TylbTkhdW0NASF0oW0NIXT1PKVtDSF0oW0NIM10pW0NIM10=

> <s_epik_cmdline>
J2VwaWtfcHl0aG9uJywgJy1waHQnLCAnMC41JywgJy1waCcsICc3LjUnLCAnLW50JywgJy1tYScsICcyMDAnLCAnLWltYWUnLCAnPGluZmlsZS5tYWU+JywgJy1vbWFlJywgJzxvdXRmaWxlLm1hZT4n

> <r_lp_tautomer_probability>
1

> <r_epik_Ionization_Penalty>
  0.0002

> <r_epik_Ionization_Penalty_Charging>
  0.0000

> <r_epik_Ionization_Penalty_Neutral>
  0.0002

> <r_epik_State_Penalty>
 -0.0000

> <r_epik_Charging_Adjusted_Penalty>
0

> <i_epik_Tot_Q>
0

> <i_epik_Tot_abs_Q>
0

> <s_epik_Chemistry_Notes>
This compound has an ester and may undergo hydrolysis at high or low pH.

> <s_lp_Force_Field>
OPLS3e

> <r_lp_Energy>
6.912526

> <b_lp_Chiralities_Consistent>
1

> <s_lp_Variant>
sdf/inactives_sanitized.sdf:70-1

$$$$
sdf/inactives_sanitized.sdf:71
                    3D
 Schrodinger Suite 2020-1.
 57 58  0  0  1  0            999 V2000
    2.2081    0.1011    2.4921 C   0  0  0  0  0  0
    2.2079   -0.5573    1.2663 N   0  0  0  0  0  0
    0.0973    0.1569    0.1380 C   0  0  0  0  0  0
    1.6423    0.0875    0.0674 C   0  0  2  0  0  0
    1.8895    1.2771    2.6890 O   0  0  0  0  0  0
   -0.5446   -0.8364    0.4863 O   0  0  0  0  0  0
    2.5750   -0.7693    3.4601 O   0  0  0  0  0  0
    2.0903   -0.6955   -1.1965 C   0  0  0  0  0  0
   -5.7461    2.3200    2.8666 C   0  0  0  0  0  0
   -0.4627    1.3333   -0.1908 N   0  0  0  0  0  0
   -4.3534    2.2093    2.8036 C   0  0  0  0  0  0
   -6.3928    2.4693    4.0947 C   0  0  0  0  0  0
   -3.7661    2.0547    1.5355 N   0  0  0  0  0  0
    2.4700   -0.4369    4.8463 C   0  0  0  0  0  0
   -8.1127    2.6018    4.1542 Cl  0  0  0  0  0  0
    1.0149   -0.3696    5.3015 C   0  0  0  0  0  0
   -4.2603    2.4042    5.2239 C   0  0  0  0  0  0
    3.6160   -0.7166   -1.4586 C   0  0  0  0  0  0
   -1.8889    1.6221   -0.0625 C   0  0  0  0  0  0
   -3.6138    2.2545    3.9966 C   0  0  0  0  0  0
   -5.6490    2.5105    5.2736 C   0  0  0  0  0  0
   -2.3487    1.7395    1.4034 C   0  0  0  0  0  0
    0.5037    0.8234    5.8182 C   0  0  0  0  0  0
    0.1935   -1.4946    5.1881 C   0  0  0  0  0  0
    4.2037    0.6983   -1.6489 C   0  0  0  0  0  0
    3.9602   -1.6533   -2.6368 C   0  0  0  0  0  0
   -0.8289    0.8933    6.2153 C   0  0  0  0  0  0
   -1.1395   -1.4237    5.5847 C   0  0  0  0  0  0
   -1.6448   -0.2298    6.0952 C   0  0  0  0  0  0
    2.4195   -1.5437    1.2328 H   0  0  0  0  0  0
    2.0379    1.1030   -0.0098 H   0  0  0  0  0  0
    1.7291   -1.7238   -1.1243 H   0  0  0  0  0  0
    1.6016   -0.2772   -2.0789 H   0  0  0  0  0  0
   -6.3339    2.2891    1.9601 H   0  0  0  0  0  0
    0.1312    2.0961   -0.4827 H   0  0  0  0  0  0
   -4.3751    1.7221    0.8018 H   0  0  0  0  0  0
    2.9811   -1.2019    5.4311 H   0  0  0  0  0  0
    2.9827    0.5048    5.0504 H   0  0  0  0  0  0
   -3.6840    2.4359    6.1365 H   0  0  0  0  0  0
    4.0950   -1.1477   -0.5786 H   0  0  0  0  0  0
   -2.0895    2.5597   -0.5825 H   0  0  0  0  0  0
   -2.4758    0.8665   -0.5890 H   0  0  0  0  0  0
   -2.5373    2.1712    3.9926 H   0  0  0  0  0  0
   -6.1453    2.6247    6.2261 H   0  0  0  0  0  0
   -1.7650    2.5005    1.9234 H   0  0  0  0  0  0
   -2.1660    0.8031    1.9328 H   0  0  0  0  0  0
    1.1330    1.6977    5.9034 H   0  0  0  0  0  0
    0.5843   -2.4183    4.7864 H   0  0  0  0  0  0
    3.4325    1.4327   -1.8822 H   0  0  0  0  0  0
    4.9408    0.7442   -2.4507 H   0  0  0  0  0  0
    4.7055    1.0297   -0.7392 H   0  0  0  0  0  0
    4.3627   -1.1180   -3.4967 H   0  0  0  0  0  0
    3.0879   -2.2029   -2.9918 H   0  0  0  0  0  0
    4.7041   -2.3926   -2.3383 H   0  0  0  0  0  0
   -1.2294    1.8153    6.6103 H   0  0  0  0  0  0
   -1.7792   -2.2892    5.4942 H   0  0  0  0  0  0
   -2.6798   -0.1737    6.3990 H   0  0  0  0  0  0
  1  2  1  0  0  0
  1  5  2  0  0  0
  1  7  1  0  0  0
  2  4  1  0  0  0
  2 30  1  0  0  0
  3  4  1  0  0  0
  3  6  2  0  0  0
  3 10  1  0  0  0
  4  8  1  0  0  0
  4 31  1  0  0  0
  7 14  1  0  0  0
  8 18  1  0  0  0
  8 32  1  0  0  0
  8 33  1  0  0  0
  9 11  2  0  0  0
  9 12  1  0  0  0
  9 34  1  0  0  0
 10 19  1  0  0  0
 10 35  1  0  0  0
 11 13  1  0  0  0
 11 20  1  0  0  0
 12 15  1  0  0  0
 12 21  2  0  0  0
 13 22  1  0  0  0
 13 36  1  0  0  0
 14 16  1  0  0  0
 14 37  1  0  0  0
 14 38  1  0  0  0
 16 23  2  0  0  0
 16 24  1  0  0  0
 17 20  2  0  0  0
 17 21  1  0  0  0
 17 39  1  0  0  0
 18 25  1  0  0  0
 18 26  1  0  0  0
 18 40  1  0  0  0
 19 22  1  0  0  0
 19 41  1  0  0  0
 19 42  1  0  0  0
 20 43  1  0  0  0
 21 44  1  0  0  0
 22 45  1  0  0  0
 22 46  1  0  0  0
 23 27  1  0  0  0
 23 47  1  0  0  0
 24 28  2  0  0  0
 24 48  1  0  0  0
 25 49  1  0  0  0
 25 50  1  0  0  0
 25 51  1  0  0  0
 26 52  1  0  0  0
 26 53  1  0  0  0
 26 54  1  0  0  0
 27 29  2  0  0  0
 27 55  1  0  0  0
 28 29  1  0  0  0
 28 56  1  0  0  0
 29 57  1  0  0  0
M  END
> <chembl_id>
CHEMBL77335

> <chembl_pref_name>
None

> <i_m_ct_stereo_status>
1

> <s_m_source_file>
sdf/inactives_sanitized.sdf

> <i_m_source_file_index>
71

> <i_lp_mmshare_version>
49012

> <i_f3d_flags>
0

> <s_epik_input>
W2NIXTFbY0hdW2NIXVtjSF1bY0hdYzFbQ0gyXU9DKD1PKVtOSF1bQ0BASF0oW0NIMl1bQ0hdKFtDSDNdKVtDSDNdKUMoPU8pW05IXVtDSDJdW0NIMl1bTkhdYzJbY0hdYyhDbClbY0hdW2NIXVtjSF0y

> <s_epik_cmdline>
J2VwaWtfcHl0aG9uJywgJy1waHQnLCAnMC41JywgJy1waCcsICc3LjUnLCAnLW50JywgJy1tYScsICcyMDAnLCAnLWltYWUnLCAnPGluZmlsZS5tYWU+JywgJy1vbWFlJywgJzxvdXRmaWxlLm1hZT4n

> <r_lp_tautomer_probability>
1

> <r_epik_Ionization_Penalty>
  0.0000

> <r_epik_Ionization_Penalty_Charging>
  0.0000

> <r_epik_Ionization_Penalty_Neutral>
  0.0000

> <r_epik_State_Penalty>
 -0.0000

> <r_epik_Charging_Adjusted_Penalty>
0

> <i_epik_Tot_Q>
0

> <i_epik_Tot_abs_Q>
0

> <s_epik_Chemistry_Notes>
This compound has an ester and may undergo hydrolysis at high or low pH.

> <s_lp_Force_Field>
OPLS3e

> <r_lp_Energy>
21.896029

> <b_lp_Chiralities_Consistent>
1

> <s_lp_Variant>
sdf/inactives_sanitized.sdf:71-1

$$$$
sdf/inactives_sanitized.sdf:72
                    3D
 Schrodinger Suite 2020-1.
 59 60  0  0  1  0            999 V2000
    1.7635   -1.1644   -2.3636 C   0  0  0  0  0  0
    2.1490   -0.0808   -1.2611 C   0  0  0  0  0  0
    2.3310   -0.8831   -3.5592 N   0  0  0  0  0  0
    2.2100   -1.6183   -4.7302 C   0  0  0  0  0  0
    1.5400   -2.7508   -4.8677 N   0  0  0  0  0  0
   -0.7697    0.8053   -0.6689 C   0  0  0  0  0  0
    2.8016   -1.2394   -5.9343 C   0  0  0  0  0  0
   -0.0370   -0.1972   -0.0363 N   0  0  0  0  0  0
    1.4374   -0.1486    0.0980 C   0  0  1  0  0  0
    1.6855   -3.1444   -6.1993 O   0  0  0  0  0  0
    3.0137    0.7676   -1.4962 O   0  0  0  0  0  0
    2.4495   -2.2215   -6.8311 C   0  0  0  0  0  0
    1.0309   -2.1186   -2.0943 O   0  0  0  0  0  0
   -0.3170    1.7908   -1.2569 O   0  0  0  0  0  0
   -2.0798    0.5385   -0.5149 O   0  0  0  0  0  0
   -4.4922    1.0442   -0.5250 C   0  0  0  0  0  0
   -3.0769    1.3836   -1.0831 C   0  0  0  0  0  0
    1.9882   -1.3343    0.9349 C   0  0  0  0  0  0
   -4.8701   -0.4346   -0.8649 C   0  0  0  0  0  0
   -4.5660    1.2687    1.0170 C   0  0  0  0  0  0
   -5.5592    2.0053   -1.1326 C   0  0  0  0  0  0
    1.4064   -1.4133    2.3621 C   0  0  0  0  0  0
    1.9952   -2.5733    3.1838 C   0  0  0  0  0  0
   -6.2591   -0.9523   -0.4381 C   0  0  0  0  0  0
    1.4036   -2.6652    4.5970 C   0  0  0  0  0  0
   -4.2156    2.7214    1.4154 C   0  0  0  0  0  0
   -5.2669    3.4929   -0.8225 C   0  0  0  0  0  0
   -5.1405    3.7363    0.7008 C   0  0  0  0  0  0
    2.8991   -0.0505   -3.6178 H   0  0  0  0  0  0
    3.4062   -0.3649   -6.1250 H   0  0  0  0  0  0
   -0.5321   -0.7757    0.6267 H   0  0  0  0  0  0
    1.6624    0.7542    0.6705 H   0  0  0  0  0  0
    2.6515   -2.3907   -7.8786 H   0  0  0  0  0  0
   -3.0665    1.2578   -2.1669 H   0  0  0  0  0  0
   -2.8153    2.4238   -0.8927 H   0  0  0  0  0  0
    1.7821   -2.2801    0.4312 H   0  0  0  0  0  0
    3.0746   -1.2528    1.0098 H   0  0  0  0  0  0
   -4.7724   -0.5822   -1.9416 H   0  0  0  0  0  0
   -4.1253   -1.1001   -0.4260 H   0  0  0  0  0  0
   -5.5530    1.0206    1.4084 H   0  0  0  0  0  0
   -3.8737    0.5938    1.5229 H   0  0  0  0  0  0
   -5.5953    1.8761   -2.2154 H   0  0  0  0  0  0
   -6.5603    1.7633   -0.7747 H   0  0  0  0  0  0
    1.5926   -0.4726    2.8825 H   0  0  0  0  0  0
    0.3229   -1.5304    2.3125 H   0  0  0  0  0  0
    1.8216   -3.5164    2.6636 H   0  0  0  0  0  0
    3.0777   -2.4597    3.2562 H   0  0  0  0  0  0
   -6.3756   -1.9978   -0.7245 H   0  0  0  0  0  0
   -7.0690   -0.4034   -0.9173 H   0  0  0  0  0  0
   -6.4038   -0.9034    0.6404 H   0  0  0  0  0  0
    1.8412   -3.4979    5.1482 H   0  0  0  0  0  0
    0.3247   -2.8206    4.5654 H   0  0  0  0  0  0
    1.5943   -1.7551    5.1666 H   0  0  0  0  0  0
   -4.3117    2.8387    2.4954 H   0  0  0  0  0  0
   -3.1716    2.9411    1.1899 H   0  0  0  0  0  0
   -4.3630    3.8249   -1.3328 H   0  0  0  0  0  0
   -6.0689    4.1139   -1.2236 H   0  0  0  0  0  0
   -4.7916    4.7526    0.8872 H   0  0  0  0  0  0
   -6.1345    3.6755    1.1468 H   0  0  0  0  0  0
  1  2  1  0  0  0
  1  3  1  0  0  0
  1 13  2  0  0  0
  2  9  1  0  0  0
  2 11  2  0  0  0
  3  4  1  0  0  0
  3 29  1  0  0  0
  4  5  2  0  0  0
  4  7  1  0  0  0
  5 10  1  0  0  0
  6  8  1  0  0  0
  6 14  2  0  0  0
  6 15  1  0  0  0
  7 12  2  0  0  0
  7 30  1  0  0  0
  8  9  1  0  0  0
  8 31  1  0  0  0
  9 18  1  0  0  0
  9 32  1  0  0  0
 10 12  1  0  0  0
 12 33  1  0  0  0
 15 17  1  0  0  0
 16 17  1  0  0  0
 16 19  1  0  0  0
 16 20  1  0  0  0
 16 21  1  0  0  0
 17 34  1  0  0  0
 17 35  1  0  0  0
 18 22  1  0  0  0
 18 36  1  0  0  0
 18 37  1  0  0  0
 19 24  1  0  0  0
 19 38  1  0  0  0
 19 39  1  0  0  0
 20 26  1  0  0  0
 20 40  1  0  0  0
 20 41  1  0  0  0
 21 27  1  0  0  0
 21 42  1  0  0  0
 21 43  1  0  0  0
 22 23  1  0  0  0
 22 44  1  0  0  0
 22 45  1  0  0  0
 23 25  1  0  0  0
 23 46  1  0  0  0
 23 47  1  0  0  0
 24 48  1  0  0  0
 24 49  1  0  0  0
 24 50  1  0  0  0
 25 51  1  0  0  0
 25 52  1  0  0  0
 25 53  1  0  0  0
 26 28  1  0  0  0
 26 54  1  0  0  0
 26 55  1  0  0  0
 27 28  1  0  0  0
 27 56  1  0  0  0
 27 57  1  0  0  0
 28 58  1  0  0  0
 28 59  1  0  0  0
M  END
> <chembl_id>
CHEMBL359773

> <chembl_pref_name>
None

> <i_m_ct_stereo_status>
1

> <s_m_source_file>
sdf/inactives_sanitized.sdf

> <i_m_source_file_index>
72

> <i_lp_mmshare_version>
49012

> <i_f3d_flags>
0

> <s_epik_input>
W2NIXTFbY0hdb25jMVtOSF1DKD1PKUMoPU8pW0NASF0oW0NIMl1bQ0gyXVtDSDJdW0NIM10pW05IXUMoPU8pT1tDSDJdQzIoW0NIMl1bQ0gzXSlbQ0gyXVtDSDJdW0NIMl1bQ0gyXVtDSDJdMg==

> <s_epik_cmdline>
J2VwaWtfcHl0aG9uJywgJy1waHQnLCAnMC41JywgJy1waCcsICc3LjUnLCAnLW50JywgJy1tYScsICcyMDAnLCAnLWltYWUnLCAnPGluZmlsZS5tYWU+JywgJy1vbWFlJywgJzxvdXRmaWxlLm1hZT4n

> <r_lp_tautomer_probability>
0.99990000499975

> <r_epik_Ionization_Penalty>
  0.0095

> <r_epik_Ionization_Penalty_Charging>
  0.0000

> <r_epik_Ionization_Penalty_Neutral>
  0.0095

> <r_epik_State_Penalty>
  0.0072

> <r_epik_Charging_Adjusted_Penalty>
0.00717697758134448

> <i_epik_Tot_Q>
0

> <i_epik_Tot_abs_Q>
0

> <s_epik_Chemistry_Notes>
This compound has an ester and may undergo hydrolysis at high or low pH.

> <s_lp_Force_Field>
OPLS3e

> <r_lp_Energy>
37.828152

> <b_lp_Chiralities_Consistent>
1

> <s_lp_Variant>
sdf/inactives_sanitized.sdf:72-1

$$$$
sdf/inactives_sanitized.sdf:73
                    3D
 Schrodinger Suite 2020-1.
 43 44  0  0  1  0            999 V2000
    0.0149   -3.1116    0.0582 C   0  0  0  0  0  0
    0.5172   -4.3967    0.2676 C   0  0  0  0  0  0
    0.8774   -4.8036    1.5522 C   0  0  0  0  0  0
    0.7332   -3.9264    2.6263 C   0  0  0  0  0  0
    0.2344   -2.6405    2.4160 C   0  0  0  0  0  0
   -0.1204   -2.2185    1.1294 C   0  0  0  0  0  0
   -0.6593   -0.8018    0.9159 C   0  0  0  0  0  0
   -0.0121   -0.0468   -0.2799 C   0  0  2  0  0  0
    1.4504    0.0081   -0.1697 N   0  0  0  0  0  0
   -0.5683    1.3881   -0.3733 C   0  0  0  0  0  0
   -0.2356    2.2322    0.4611 O   0  0  0  0  0  0
   -1.4370    1.6291   -1.3693 N   0  0  0  0  0  0
   -2.1158    2.9058   -1.5686 C   0  0  0  0  0  0
   -3.0602    3.2286   -0.4839 C   0  0  0  0  0  0
   -3.8019    3.4818    0.3672 N   0  0  0  0  0  0
    2.3329   -0.5341   -1.0306 C   0  0  0  0  0  0
    1.9956   -1.1703   -2.0316 O   0  0  0  0  0  0
    3.7945   -0.3522   -0.6877 C   0  0  0  0  0  0
    0.6935   -5.4812   -1.0633 Cl  0  0  0  0  0  0
    4.2322    0.6934    0.1442 C   0  0  0  0  0  0
    5.5878    0.8511    0.4460 C   0  0  0  0  0  0
    6.5221   -0.0415   -0.0839 C   0  0  0  0  0  0
    6.1039   -1.0801   -0.9130 C   0  0  0  0  0  0
    4.7511   -1.2331   -1.2145 C   0  0  0  0  0  0
    6.0339    1.9862    1.3495 C   0  0  0  0  0  0
   -0.2639   -2.8135   -0.9415 H   0  0  0  0  0  0
    1.2666   -5.7974    1.7187 H   0  0  0  0  0  0
    1.0097   -4.2421    3.6215 H   0  0  0  0  0  0
    0.1307   -1.9719    3.2582 H   0  0  0  0  0  0
   -1.7416   -0.8678    0.7911 H   0  0  0  0  0  0
   -0.4947   -0.2268    1.8300 H   0  0  0  0  0  0
   -0.2952   -0.5741   -1.1930 H   0  0  0  0  0  0
    1.8024    0.5146    0.6294 H   0  0  0  0  0  0
   -1.6925    0.8759   -1.9917 H   0  0  0  0  0  0
   -1.3938    3.7186   -1.6624 H   0  0  0  0  0  0
   -2.6767    2.8668   -2.5022 H   0  0  0  0  0  0
    3.5263    1.3990    0.5596 H   0  0  0  0  0  0
    7.5730    0.0674    0.1420 H   0  0  0  0  0  0
    6.8286   -1.7681   -1.3230 H   0  0  0  0  0  0
    4.4545   -2.0486   -1.8592 H   0  0  0  0  0  0
    7.0941    1.9225    1.5984 H   0  0  0  0  0  0
    5.4699    1.9663    2.2827 H   0  0  0  0  0  0
    5.8415    2.9473    0.8716 H   0  0  0  0  0  0
  1  6  2  0  0  0
  1  2  1  0  0  0
  1 26  1  0  0  0
  2 19  1  0  0  0
  2  3  2  0  0  0
  3  4  1  0  0  0
  3 27  1  0  0  0
  4  5  2  0  0  0
  4 28  1  0  0  0
  5  6  1  0  0  0
  5 29  1  0  0  0
  6  7  1  0  0  0
  7  8  1  0  0  0
  7 30  1  0  0  0
  7 31  1  0  0  0
  8  9  1  0  0  0
  8 10  1  0  0  0
  8 32  1  0  0  0
  9 16  1  0  0  0
  9 33  1  0  0  0
 10 11  2  0  0  0
 10 12  1  0  0  0
 12 13  1  0  0  0
 12 34  1  0  0  0
 13 14  1  0  0  0
 13 35  1  0  0  0
 13 36  1  0  0  0
 14 15  3  0  0  0
 16 17  2  0  0  0
 16 18  1  0  0  0
 18 20  2  0  0  0
 18 24  1  0  0  0
 20 21  1  0  0  0
 20 37  1  0  0  0
 21 22  2  0  0  0
 21 25  1  0  0  0
 22 23  1  0  0  0
 22 38  1  0  0  0
 23 24  2  0  0  0
 23 39  1  0  0  0
 24 40  1  0  0  0
 25 41  1  0  0  0
 25 42  1  0  0  0
 25 43  1  0  0  0
M  END
> <chembl_id>
CHEMBL561927

> <chembl_pref_name>
None

> <i_m_ct_stereo_status>
1

> <s_m_source_file>
sdf/inactives_sanitized.sdf

> <i_m_source_file_index>
73

> <i_lp_mmshare_version>
49012

> <i_f3d_flags>
0

> <s_epik_input>
W2NIXTFbY0hdW2NIXWMoW2NIXWMxQ2wpW0NIMl1bQ0BASF0oQyg9TylbTkhdW0NIMl1DI04pW05IXUMoPU8pYzJbY0hdYyhbQ0gzXSlbY0hdW2NIXVtjSF0y

> <s_epik_cmdline>
J2VwaWtfcHl0aG9uJywgJy1waHQnLCAnMC41JywgJy1waCcsICc3LjUnLCAnLW50JywgJy1tYScsICcyMDAnLCAnLWltYWUnLCAnPGluZmlsZS5tYWU+JywgJy1vbWFlJywgJzxvdXRmaWxlLm1hZT4n

> <r_lp_tautomer_probability>
1

> <r_epik_Ionization_Penalty>
  0.0000

> <r_epik_Ionization_Penalty_Charging>
  0.0000

> <r_epik_Ionization_Penalty_Neutral>
  0.0000

> <r_epik_State_Penalty>
 -0.0000

> <r_epik_Charging_Adjusted_Penalty>
0

> <i_epik_Tot_Q>
0

> <i_epik_Tot_abs_Q>
0

> <s_lp_Force_Field>
OPLS3e

> <r_lp_Energy>
21.499931

> <b_lp_Chiralities_Consistent>
1

> <s_lp_Variant>
sdf/inactives_sanitized.sdf:73-1

$$$$
sdf/inactives_sanitized.sdf:74
                    3D
 Schrodinger Suite 2020-1.
 39 41  0  0  1  0            999 V2000
   -2.7608    0.2603   -0.5914 N   0  0  0  0  0  0
   -2.2304   -0.9539   -0.2632 C   0  0  0  0  0  0
   -0.8583   -1.0845    0.0654 C   0  0  0  0  0  0
   -0.0674    0.0868    0.0382 C   0  0  0  0  0  0
   -0.6030    1.2973   -0.2855 N   0  0  0  0  0  0
   -1.9208    1.3201   -0.5876 C   0  0  0  0  0  0
   -2.4902    2.6098   -0.9374 C   0  0  0  0  0  0
   -2.9436    3.6375   -1.2161 N   0  0  0  0  0  0
   -3.1234   -2.0277   -0.2131 N   0  0  0  0  0  0
   -4.3784   -2.0130   -0.9905 C   0  0  0  0  0  0
   -5.0389   -3.4060   -1.0743 C   0  0  0  0  0  0
   -5.2708   -3.9103    0.2337 O   0  0  0  0  0  0
   -4.0704   -4.0157    0.9866 C   0  0  0  0  0  0
   -3.4019   -2.6289    1.1042 C   0  0  0  0  0  0
    1.3067    0.0286    0.3540 N   0  0  0  0  0  0
   -0.2915   -2.3340    0.3677 N   0  0  0  0  0  0
    2.2111    1.1672    0.1764 C   0  0  2  0  0  0
    2.5212    1.4410   -1.3009 C   0  0  0  0  0  0
    3.6271    0.5972   -1.5908 O   0  0  0  0  0  0
    4.4876    0.5729   -0.4571 C   0  0  0  0  0  0
    3.5944    0.8827    0.7483 C   0  0  0  0  0  0
   -4.1569   -1.6793   -2.0053 H   0  0  0  0  0  0
   -5.0717   -1.2844   -0.5665 H   0  0  0  0  0  0
   -5.9950   -3.3334   -1.5932 H   0  0  0  0  0  0
   -4.4235   -4.1000   -1.6503 H   0  0  0  0  0  0
   -4.3144   -4.3972    1.9782 H   0  0  0  0  0  0
   -3.3937   -4.7412    0.5309 H   0  0  0  0  0  0
   -2.4812   -2.7459    1.6748 H   0  0  0  0  0  0
   -4.0294   -1.9506    1.6850 H   0  0  0  0  0  0
    1.7203   -0.8725    0.5440 H   0  0  0  0  0  0
    0.6990   -2.4013    0.5518 H   0  0  0  0  0  0
   -0.8703   -3.1611    0.3285 H   0  0  0  0  0  0
    1.8038    2.0646    0.6450 H   0  0  0  0  0  0
    1.6987    1.2030   -1.9766 H   0  0  0  0  0  0
    2.7763    2.4830   -1.5009 H   0  0  0  0  0  0
    4.9747   -0.3993   -0.3761 H   0  0  0  0  0  0
    5.2682    1.3257   -0.5776 H   0  0  0  0  0  0
    3.5946    0.0505    1.4550 H   0  0  0  0  0  0
    3.9705    1.7518    1.2897 H   0  0  0  0  0  0
  1  6  2  0  0  0
  1  2  1  0  0  0
  2  3  2  0  0  0
  2  9  1  0  0  0
  3  4  1  0  0  0
  3 16  1  0  0  0
  4  5  2  0  0  0
  4 15  1  0  0  0
  5  6  1  0  0  0
  6  7  1  0  0  0
  7  8  3  0  0  0
  9 14  1  0  0  0
  9 10  1  0  0  0
 10 11  1  0  0  0
 10 22  1  0  0  0
 10 23  1  0  0  0
 11 12  1  0  0  0
 11 24  1  0  0  0
 11 25  1  0  0  0
 12 13  1  0  0  0
 13 14  1  0  0  0
 13 26  1  0  0  0
 13 27  1  0  0  0
 14 28  1  0  0  0
 14 29  1  0  0  0
 15 17  1  0  0  0
 15 30  1  0  0  0
 16 31  1  0  0  0
 16 32  1  0  0  0
 17 18  1  0  0  0
 17 21  1  0  0  0
 17 33  1  0  0  0
 18 19  1  0  0  0
 18 34  1  0  0  0
 18 35  1  0  0  0
 19 20  1  0  0  0
 20 21  1  0  0  0
 20 36  1  0  0  0
 20 37  1  0  0  0
 21 38  1  0  0  0
 21 39  1  0  0  0
M  END
> <chembl_id>
CHEMBL446519

> <chembl_pref_name>
None

> <s_m_source_file>
sdf/inactives_sanitized.sdf

> <i_m_source_file_index>
74

> <i_lp_mmshare_version>
49012

> <i_m_ct_stereo_status>
1

> <i_f3d_flags>
0

> <s_epik_input>
W0NIMl0xW0NIMl1PW0NIMl1bQ0gyXU4xYzJuYyhDI04pbmMoYzJbTkgyXSlbTkhdW0NAQEhdM1tDSDJdT1tDSDJdW0NIMl0z

> <s_epik_cmdline>
J2VwaWtfcHl0aG9uJywgJy1waHQnLCAnMC41JywgJy1waCcsICc3LjUnLCAnLW50JywgJy1tYScsICcyMDAnLCAnLWltYWUnLCAnPGluZmlsZS5tYWU+JywgJy1vbWFlJywgJzxvdXRmaWxlLm1hZT4n

> <r_lp_tautomer_probability>
1

> <r_epik_Ionization_Penalty>
  0.0000

> <r_epik_Ionization_Penalty_Charging>
  0.0000

> <r_epik_Ionization_Penalty_Neutral>
  0.0000

> <r_epik_State_Penalty>
 -0.0000

> <r_epik_Charging_Adjusted_Penalty>
0

> <i_epik_Tot_Q>
0

> <i_epik_Tot_abs_Q>
0

> <s_lp_Force_Field>
OPLS3e

> <r_lp_Energy>
37.102469

> <b_lp_Chiralities_Consistent>
1

> <s_lp_Variant>
sdf/inactives_sanitized.sdf:74-1

$$$$
sdf/inactives_sanitized.sdf:75
                    3D
 Schrodinger Suite 2020-1.
 58 57  0  0  1  0            999 V2000
    9.8682    1.3227    1.5102 C   0  0  0  0  0  0
   10.7022    0.3056    1.2118 O   0  0  0  0  0  0
   10.1924    2.3943    2.0284 O   0  0  0  0  0  0
   12.0919    0.4013    1.4977 C   0  0  0  0  0  0
   12.8002   -0.8736    1.0278 C   0  0  0  0  0  0
   -2.0503    4.4163    1.8227 C   0  0  0  0  0  0
   -1.5114    3.4514    0.8990 O   0  0  0  0  0  0
   -0.9230    5.1813    2.5600 C   0  0  0  0  0  0
   -3.0210    3.7533    2.8312 C   0  0  0  0  0  0
   -2.8360    5.4015    0.9330 C   0  0  0  0  0  0
   -0.7367    2.3851    1.2366 C   0  0  0  0  0  0
   -0.3875    1.7048    0.0766 N   0  0  0  0  0  0
   -0.3993    2.0831    2.3826 O   0  0  0  0  0  0
    0.4982    0.5348    0.0555 C   0  0  2  0  0  0
    1.9300    1.0449   -0.1130 C   0  0  0  0  0  0
    2.8645    0.7033    0.6758 N   0  0  0  0  0  0
    0.0957   -0.4472   -1.0716 C   0  0  0  0  0  0
    0.8404   -1.7995   -1.0407 C   0  0  0  0  0  0
    0.3603   -2.7744   -2.1300 C   0  0  0  0  0  0
    1.1143   -4.1111   -2.1095 C   0  0  0  0  0  0
    4.0434    1.2648    0.3512 N   0  0  0  0  0  0
    5.1546    1.0786    1.0861 C   0  0  0  0  0  0
    5.2637    0.2634    2.0067 O   0  0  0  0  0  0
    6.1191    1.9465    0.7389 N   0  0  0  0  0  0
    7.3878    2.1058    1.4450 C   0  0  0  0  0  0
    8.4187    0.9986    1.1279 C   0  0  0  0  0  0
   12.2424    0.5365    2.5702 H   0  0  0  0  0  0
   12.5190    1.2703    0.9938 H   0  0  0  0  0  0
   13.8681   -0.8235    1.2406 H   0  0  0  0  0  0
   12.6820   -1.0177   -0.0466 H   0  0  0  0  0  0
   12.4022   -1.7554    1.5314 H   0  0  0  0  0  0
   -1.3228    6.0070    3.1502 H   0  0  0  0  0  0
   -0.2037    5.6009    1.8555 H   0  0  0  0  0  0
   -0.3670    4.5393    3.2430 H   0  0  0  0  0  0
   -2.5077    3.0800    3.5174 H   0  0  0  0  0  0
   -3.7855    3.1686    2.3181 H   0  0  0  0  0  0
   -3.5333    4.5002    3.4389 H   0  0  0  0  0  0
   -3.3008    6.1929    1.5224 H   0  0  0  0  0  0
   -3.6296    4.8958    0.3807 H   0  0  0  0  0  0
   -2.1884    5.8795    0.1964 H   0  0  0  0  0  0
   -0.6907    2.0856   -0.8077 H   0  0  0  0  0  0
    0.4028   -0.0040    1.0026 H   0  0  0  0  0  0
    2.0573    1.7004   -0.9739 H   0  0  0  0  0  0
   -0.9756   -0.6439   -0.9967 H   0  0  0  0  0  0
    0.2360    0.0233   -2.0472 H   0  0  0  0  0  0
    1.9120   -1.6326   -1.1589 H   0  0  0  0  0  0
    0.7106   -2.2611   -0.0607 H   0  0  0  0  0  0
   -0.7068   -2.9649   -2.0069 H   0  0  0  0  0  0
    0.4773   -2.3139   -3.1120 H   0  0  0  0  0  0
    0.7455   -4.7778   -2.8894 H   0  0  0  0  0  0
    0.9915   -4.6208   -1.1532 H   0  0  0  0  0  0
    2.1820   -3.9654   -2.2768 H   0  0  0  0  0  0
    4.0186    1.9124   -0.4227 H   0  0  0  0  0  0
    5.9664    2.5533   -0.0534 H   0  0  0  0  0  0
    7.7855    3.0681    1.1184 H   0  0  0  0  0  0
    7.2625    2.2334    2.5225 H   0  0  0  0  0  0
    8.0980    0.0466    1.5521 H   0  0  0  0  0  0
    8.4152    0.8358    0.0494 H   0  0  0  0  0  0
  1  3  2  0  0  0
  1  2  1  0  0  0
  1 26  1  0  0  0
  2  4  1  0  0  0
  4  5  1  0  0  0
  4 27  1  0  0  0
  4 28  1  0  0  0
  5 29  1  0  0  0
  5 30  1  0  0  0
  5 31  1  0  0  0
  6  8  1  0  0  0
  6  9  1  0  0  0
  6 10  1  0  0  0
  6  7  1  0  0  0
  7 11  1  0  0  0
  8 32  1  0  0  0
  8 33  1  0  0  0
  8 34  1  0  0  0
  9 35  1  0  0  0
  9 36  1  0  0  0
  9 37  1  0  0  0
 10 38  1  0  0  0
 10 39  1  0  0  0
 10 40  1  0  0  0
 11 12  1  0  0  0
 11 13  2  0  0  0
 12 14  1  0  0  0
 12 41  1  0  0  0
 14 15  1  0  0  0
 14 17  1  0  0  0
 14 42  1  0  0  0
 15 16  2  0  0  0
 15 43  1  0  0  0
 16 21  1  0  0  0
 17 18  1  0  0  0
 17 44  1  0  0  0
 17 45  1  0  0  0
 18 19  1  0  0  0
 18 46  1  0  0  0
 18 47  1  0  0  0
 19 20  1  0  0  0
 19 48  1  0  0  0
 19 49  1  0  0  0
 20 50  1  0  0  0
 20 51  1  0  0  0
 20 52  1  0  0  0
 21 22  1  0  0  0
 21 53  1  0  0  0
 22 23  2  0  0  0
 22 24  1  0  0  0
 24 25  1  0  0  0
 24 54  1  0  0  0
 25 26  1  0  0  0
 25 55  1  0  0  0
 25 56  1  0  0  0
 26 57  1  0  0  0
 26 58  1  0  0  0
M  END
> <chembl_id>
CHEMBL204907

> <chembl_pref_name>
None

> <i_m_ct_stereo_status>
1

> <s_m_source_file>
sdf/inactives_sanitized.sdf

> <i_m_source_file_index>
75

> <i_lp_mmshare_version>
49012

> <i_f3d_flags>
0

> <s_epik_input>
W0NIM11bQ0gyXU9DKD1PKVtDSDJdW0NIMl1bTkhdQyg9TylbTkhdXE49W0NIXVxbQ0BIXShbQ0gyXVtDSDJdW0NIMl1bQ0gzXSlbTkhdQyg9TylPQyhbQ0gzXSkoW0NIM10pW0NIM10=

> <s_epik_cmdline>
J2VwaWtfcHl0aG9uJywgJy1waHQnLCAnMC41JywgJy1waCcsICc3LjUnLCAnLW50JywgJy1tYScsICcyMDAnLCAnLWltYWUnLCAnPGluZmlsZS5tYWU+JywgJy1vbWFlJywgJzxvdXRmaWxlLm1hZT4n

> <r_lp_tautomer_probability>
1

> <r_epik_Ionization_Penalty>
  0.0001

> <r_epik_Ionization_Penalty_Charging>
  0.0000

> <r_epik_Ionization_Penalty_Neutral>
  0.0001

> <r_epik_State_Penalty>
 -0.0000

> <r_epik_Charging_Adjusted_Penalty>
0

> <i_epik_Tot_Q>
0

> <i_epik_Tot_abs_Q>
0

> <s_epik_Chemistry_Notes>
This compound has an ester and may undergo hydrolysis at high or low pH. This compound has an imine and may undergo hydrolysis.

> <s_lp_Force_Field>
OPLS3e

> <r_lp_Energy>
19.246708

> <b_lp_Chiralities_Consistent>
1

> <s_lp_Variant>
sdf/inactives_sanitized.sdf:75-1

$$$$
sdf/inactives_sanitized.sdf:76
                    3D
 Schrodinger Suite 2020-1.
 30 31  0  0  1  0            999 V2000
   -0.6459   -1.1428    0.0238 C   0  0  0  0  0  0
   -0.0088    0.0981   -0.0851 C   0  0  0  0  0  0
   -0.7124    1.2654   -0.1117 N   0  0  0  0  0  0
   -2.0661    1.2074   -0.0226 C   0  0  0  0  0  0
   -2.7675    0.0045    0.0899 C   0  0  0  0  0  0
   -2.0390   -1.1856    0.1120 C   0  0  0  0  0  0
   -2.7573    2.4861   -0.0509 C   0  0  0  0  0  0
   -3.3088    3.5034   -0.0733 N   0  0  0  0  0  0
    1.3939    0.1134   -0.1809 N   0  0  0  0  0  0
    2.1685    1.3532   -0.1061 C   0  0  0  0  0  0
    3.5251    1.1325   -0.8116 C   0  0  0  0  0  0
    4.4378    2.3678   -0.6791 C   0  0  0  0  0  0
    4.6235    2.7901    0.7925 C   0  0  0  0  0  0
    3.2739    2.9871    1.5128 C   0  0  0  0  0  0
    2.3629    1.7506    1.3769 C   0  0  0  0  0  0
   -0.0768   -2.0614    0.0385 H   0  0  0  0  0  0
   -3.8461   -0.0160    0.1583 H   0  0  0  0  0  0
   -2.5494   -2.1337    0.1961 H   0  0  0  0  0  0
    1.8721   -0.7357    0.0827 H   0  0  0  0  0  0
    1.6199    2.1485   -0.6133 H   0  0  0  0  0  0
    4.0341    0.2624   -0.3920 H   0  0  0  0  0  0
    3.3664    0.9132   -1.8686 H   0  0  0  0  0  0
    5.4085    2.1632   -1.1321 H   0  0  0  0  0  0
    4.0083    3.1978   -1.2423 H   0  0  0  0  0  0
    5.2045    2.0294    1.3162 H   0  0  0  0  0  0
    5.2103    3.7079    0.8445 H   0  0  0  0  0  0
    3.4443    3.2101    2.5667 H   0  0  0  0  0  0
    2.7658    3.8583    1.0961 H   0  0  0  0  0  0
    1.3987    1.9634    1.8409 H   0  0  0  0  0  0
    2.7951    0.9200    1.9384 H   0  0  0  0  0  0
  1  6  2  0  0  0
  1  2  1  0  0  0
  1 16  1  0  0  0
  2  9  1  0  0  0
  2  3  2  0  0  0
  3  4  1  0  0  0
  4  5  2  0  0  0
  4  7  1  0  0  0
  5  6  1  0  0  0
  5 17  1  0  0  0
  6 18  1  0  0  0
  7  8  3  0  0  0
  9 10  1  0  0  0
  9 19  1  0  0  0
 10 11  1  0  0  0
 10 15  1  0  0  0
 10 20  1  0  0  0
 11 12  1  0  0  0
 11 21  1  0  0  0
 11 22  1  0  0  0
 12 13  1  0  0  0
 12 23  1  0  0  0
 12 24  1  0  0  0
 13 14  1  0  0  0
 13 25  1  0  0  0
 13 26  1  0  0  0
 14 15  1  0  0  0
 14 27  1  0  0  0
 14 28  1  0  0  0
 15 29  1  0  0  0
 15 30  1  0  0  0
M  END
> <chembl_id>
CHEMBL218522

> <chembl_pref_name>
None

> <s_m_source_file>
sdf/inactives_sanitized.sdf

> <i_m_source_file_index>
76

> <i_lp_mmshare_version>
49012

> <i_m_ct_stereo_status>
1

> <i_f3d_flags>
0

> <s_epik_input>
TiNDYyhuMSlbY0hdW2NIXVtjSF1jMVtOSF1bQ0hdMltDSDJdW0NIMl1bQ0gyXVtDSDJdW0NIMl0y

> <s_epik_cmdline>
J2VwaWtfcHl0aG9uJywgJy1waHQnLCAnMC41JywgJy1waCcsICc3LjUnLCAnLW50JywgJy1tYScsICcyMDAnLCAnLWltYWUnLCAnPGluZmlsZS5tYWU+JywgJy1vbWFlJywgJzxvdXRmaWxlLm1hZT4n

> <r_lp_tautomer_probability>
1

> <r_epik_Ionization_Penalty>
  0.0000

> <r_epik_Ionization_Penalty_Charging>
  0.0000

> <r_epik_Ionization_Penalty_Neutral>
  0.0000

> <r_epik_State_Penalty>
 -0.0000

> <r_epik_Charging_Adjusted_Penalty>
0

> <i_epik_Tot_Q>
0

> <i_epik_Tot_abs_Q>
0

> <s_lp_Force_Field>
OPLS3e

> <r_lp_Energy>
22.83764

> <b_lp_Chiralities_Consistent>
1

> <s_lp_Variant>
sdf/inactives_sanitized.sdf:76-1

$$$$
sdf/inactives_sanitized.sdf:77
                    3D
 Schrodinger Suite 2020-1.
 31 31  0  0  1  0            999 V2000
    0.2288   -0.3236   -0.3638 C   0  0  0  0  0  0
    2.2631    0.7603    0.4943 N   0  0  2  0  0  0
    2.1450    0.9069    1.8280 C   0  0  0  0  0  0
    1.7572   -0.4461   -0.1742 C   0  0  2  0  0  0
   -0.5062   -1.3642    0.0772 N   0  0  0  0  0  0
    2.0101    0.9891    2.9742 N   0  0  0  0  0  0
   -0.2577    0.6815   -0.8866 O   0  0  0  0  0  0
   -1.9685   -1.5324    0.0408 C   0  0  0  0  0  0
    3.4359    1.2794   -0.1989 C   0  0  0  0  0  0
    2.4991   -0.4440   -1.5305 C   0  0  0  0  0  0
    3.0818    0.9547   -1.6462 C   0  0  0  0  0  0
   -2.2913   -2.9075    0.6642 C   0  0  0  0  0  0
   -2.5028   -1.5190   -1.4128 C   0  0  0  0  0  0
   -2.6816   -0.4397    0.8752 C   0  0  0  0  0  0
    1.9893   -1.3448    0.4019 H   0  0  0  0  0  0
   -0.0043   -2.1350    0.4929 H   0  0  0  0  0  0
    3.5533    2.3497   -0.0249 H   0  0  0  0  0  0
    4.3114    0.7288    0.1513 H   0  0  0  0  0  0
    3.2984   -1.1871   -1.5170 H   0  0  0  0  0  0
    1.8672   -0.6811   -2.3891 H   0  0  0  0  0  0
    3.9442    1.0163   -2.3108 H   0  0  0  0  0  0
    2.3351    1.6557   -2.0254 H   0  0  0  0  0  0
   -3.3643   -3.1047    0.6711 H   0  0  0  0  0  0
   -1.9448   -2.9723    1.6971 H   0  0  0  0  0  0
   -1.8174   -3.7206    0.1117 H   0  0  0  0  0  0
   -2.0080   -2.2722   -2.0278 H   0  0  0  0  0  0
   -2.3514   -0.5540   -1.8968 H   0  0  0  0  0  0
   -3.5736   -1.7247   -1.4460 H   0  0  0  0  0  0
   -3.7594   -0.6045    0.9105 H   0  0  0  0  0  0
   -2.5278    0.5577    0.4625 H   0  0  0  0  0  0
   -2.3216   -0.4241    1.9049 H   0  0  0  0  0  0
  1  4  1  0  0  0
  1  5  1  0  0  0
  1  7  2  0  0  0
  2  4  1  0  0  0
  2  3  1  0  0  0
  2  9  1  0  0  0
  3  6  3  0  0  0
  4 10  1  0  0  0
  4 15  1  0  0  0
  5  8  1  0  0  0
  5 16  1  0  0  0
  8 12  1  0  0  0
  8 13  1  0  0  0
  8 14  1  0  0  0
  9 11  1  0  0  0
  9 17  1  0  0  0
  9 18  1  0  0  0
 10 11  1  0  0  0
 10 19  1  0  0  0
 10 20  1  0  0  0
 11 21  1  0  0  0
 11 22  1  0  0  0
 12 23  1  0  0  0
 12 24  1  0  0  0
 12 25  1  0  0  0
 13 26  1  0  0  0
 13 27  1  0  0  0
 13 28  1  0  0  0
 14 29  1  0  0  0
 14 30  1  0  0  0
 14 31  1  0  0  0
M  END
> <chembl_id>
CHEMBL182143

> <chembl_pref_name>
None

> <i_m_ct_stereo_status>
1

> <s_m_source_file>
sdf/inactives_sanitized.sdf

> <i_m_source_file_index>
77

> <i_lp_mmshare_version>
49012

> <i_f3d_flags>
0

> <s_epik_input>
W0NIM11DKFtDSDNdKShbQ0gzXSlbTkhdQyg9TylbQ0BIXShOMUMjTilbQ0gyXVtDSDJdW0NIMl0x

> <s_epik_cmdline>
J2VwaWtfcHl0aG9uJywgJy1waHQnLCAnMC41JywgJy1waCcsICc3LjUnLCAnLW50JywgJy1tYScsICcyMDAnLCAnLWltYWUnLCAnPGluZmlsZS5tYWU+JywgJy1vbWFlJywgJzxvdXRmaWxlLm1hZT4n

> <r_lp_tautomer_probability>
1

> <r_epik_Ionization_Penalty>
  0.0000

> <r_epik_Ionization_Penalty_Charging>
  0.0000

> <r_epik_Ionization_Penalty_Neutral>
  0.0000

> <r_epik_State_Penalty>
 -0.0000

> <r_epik_Charging_Adjusted_Penalty>
0

> <i_epik_Tot_Q>
0

> <i_epik_Tot_abs_Q>
0

> <s_lp_Force_Field>
OPLS3e

> <r_lp_Energy>
12.05401

> <b_lp_Chiralities_Consistent>
1

> <s_lp_Variant>
sdf/inactives_sanitized.sdf:77-1

$$$$
sdf/inactives_sanitized.sdf:78
                    3D
 Schrodinger Suite 2020-1.
 76 79  0  0  1  0            999 V2000
   -6.1940   -0.3070   -1.3471 C   0  0  0  0  0  0
   -4.6934   -0.6121   -1.4442 C   0  0  0  0  0  0
   -4.2815   -1.8615   -0.6403 C   0  0  0  0  0  0
   -2.7872   -2.2168   -0.7501 C   0  0  0  0  0  0
   -1.9211   -1.1707   -0.2131 N   0  0  0  0  0  0
   -0.6104   -1.3275    0.0440 C   0  0  0  0  0  0
    0.0428   -2.3586   -0.1251 O   0  0  0  0  0  0
    0.0605    0.0024    0.6001 C   0  0  0  0  0  0
   -0.6444    0.9357    0.9982 O   0  0  0  0  0  0
    1.5885    0.0230    0.6278 C   0  0  2  0  0  0
    2.1470    1.2273    1.4356 C   0  0  0  0  0  0
    3.6790    1.2447    1.5640 C   0  0  0  0  0  0
    1.9631    0.0643   -0.7902 N   0  0  0  0  0  0
    3.0224   -0.5411   -1.3579 C   0  0  0  0  0  0
    3.8021   -1.2411   -0.7106 O   0  0  0  0  0  0
    3.1603   -0.4525   -2.9008 C   0  0  2  0  0  0
    4.6228   -0.4896   -3.3937 C   0  0  0  0  0  0
    4.6855    0.5327   -4.5252 C   0  0  2  0  0  0
    3.6485    1.5821   -4.1058 C   0  0  0  0  0  0
    2.5846    0.7702   -3.5091 N   0  0  0  0  0  0
    1.2677    0.9054   -3.8224 C   0  0  0  0  0  0
    0.4357    0.0381   -3.5461 O   0  0  0  0  0  0
    0.7740    2.2255   -4.4647 C   0  0  0  0  0  0
   -0.3910    2.8526   -3.7082 C   0  0  0  0  0  0
    0.9846    3.4435   -3.5653 C   0  0  0  0  0  0
    0.8010    2.3275   -5.9910 C   0  0  0  0  0  0
    1.5294    3.3543   -6.5107 N   0  0  0  0  0  0
    1.6032    3.4701   -7.8610 C   0  0  0  0  0  0
    0.9565    2.5924   -8.7318 C   0  0  0  0  0  0
    1.0958    2.7855  -10.4408 Cl  0  0  0  0  0  0
    0.1942    1.5557   -8.1907 C   0  0  0  0  0  0
    0.1087    1.4173   -6.8040 C   0  0  0  0  0  0
   -0.6321    0.4195   -6.2695 F   0  0  0  0  0  0
    4.2299   -0.2888   -6.1969 S   0  0  0  0  0  0
    4.0545   -1.7328   -5.9986 O   0  0  0  0  0  0
    3.1682    0.4796   -6.8539 O   0  0  0  0  0  0
    5.7112   -0.0566   -7.1952 C   0  0  0  0  0  0
    6.4651   -1.1786   -7.5621 C   0  0  0  0  0  0
    7.6175   -1.0364   -8.3336 C   0  0  0  0  0  0
    8.0293    0.2293   -8.7446 C   0  0  0  0  0  0
    7.2890    1.3529   -8.3819 C   0  0  0  0  0  0
    6.1332    1.2209   -7.6086 C   0  0  0  0  0  0
    5.2727    2.6627   -7.1874 Cl  0  0  0  0  0  0
   -6.4491    0.5790   -1.9290 H   0  0  0  0  0  0
   -6.4944   -0.1227   -0.3150 H   0  0  0  0  0  0
   -6.7922   -1.1356   -1.7276 H   0  0  0  0  0  0
   -4.4235   -0.7466   -2.4926 H   0  0  0  0  0  0
   -4.1335    0.2559   -1.0941 H   0  0  0  0  0  0
   -4.5461   -1.7304    0.4104 H   0  0  0  0  0  0
   -4.8657   -2.7155   -0.9863 H   0  0  0  0  0  0
   -2.5975   -3.1732   -0.2583 H   0  0  0  0  0  0
   -2.5252   -2.3413   -1.8026 H   0  0  0  0  0  0
   -2.3469   -0.2706   -0.0444 H   0  0  0  0  0  0
    1.9432   -0.8960    1.1009 H   0  0  0  0  0  0
    1.8316    2.1672    0.9781 H   0  0  0  0  0  0
    1.7256    1.2196    2.4426 H   0  0  0  0  0  0
    4.0061    2.0712    2.1952 H   0  0  0  0  0  0
    4.1623    1.3650    0.5944 H   0  0  0  0  0  0
    4.0487    0.3212    2.0109 H   0  0  0  0  0  0
    1.3416    0.5958   -1.3832 H   0  0  0  0  0  0
    2.5993   -1.3256   -3.2392 H   0  0  0  0  0  0
    5.3183   -0.1392   -2.6278 H   0  0  0  0  0  0
    4.9698   -1.4875   -3.6620 H   0  0  0  0  0  0
    5.6802    0.9534   -4.6720 H   0  0  0  0  0  0
    4.0944    2.1587   -3.2941 H   0  0  0  0  0  0
    3.3686    2.2561   -4.9141 H   0  0  0  0  0  0
   -1.1419    3.3991   -4.2795 H   0  0  0  0  0  0
   -0.8327    2.3381   -2.8530 H   0  0  0  0  0  0
    1.1873    4.4121   -4.0230 H   0  0  0  0  0  0
    1.5050    3.3343   -2.6121 H   0  0  0  0  0  0
    2.2009    4.2856   -8.2406 H   0  0  0  0  0  0
   -0.3233    0.8624   -8.8375 H   0  0  0  0  0  0
    6.1656   -2.1698   -7.2556 H   0  0  0  0  0  0
    8.1908   -1.9080   -8.6134 H   0  0  0  0  0  0
    8.9219    0.3401   -9.3427 H   0  0  0  0  0  0
    7.6167    2.3311   -8.7027 H   0  0  0  0  0  0
  1  2  1  0  0  0
  1 44  1  0  0  0
  1 45  1  0  0  0
  1 46  1  0  0  0
  2  3  1  0  0  0
  2 47  1  0  0  0
  2 48  1  0  0  0
  3  4  1  0  0  0
  3 49  1  0  0  0
  3 50  1  0  0  0
  4  5  1  0  0  0
  4 51  1  0  0  0
  4 52  1  0  0  0
  5  6  1  0  0  0
  5 53  1  0  0  0
  6  7  2  0  0  0
  6  8  1  0  0  0
  8  9  2  0  0  0
  8 10  1  0  0  0
 10 11  1  0  0  0
 10 13  1  0  0  0
 10 54  1  0  0  0
 11 12  1  0  0  0
 11 55  1  0  0  0
 11 56  1  0  0  0
 12 57  1  0  0  0
 12 58  1  0  0  0
 12 59  1  0  0  0
 13 14  1  0  0  0
 13 60  1  0  0  0
 14 15  2  0  0  0
 14 16  1  0  0  0
 16 17  1  0  0  0
 16 20  1  0  0  0
 16 61  1  0  0  0
 17 18  1  0  0  0
 17 62  1  0  0  0
 17 63  1  0  0  0
 18 19  1  0  0  0
 18 34  1  0  0  0
 18 64  1  0  0  0
 19 20  1  0  0  0
 19 65  1  0  0  0
 19 66  1  0  0  0
 20 21  1  0  0  0
 21 22  2  0  0  0
 21 23  1  0  0  0
 23 24  1  0  0  0
 23 25  1  0  0  0
 23 26  1  0  0  0
 24 25  1  0  0  0
 24 67  1  0  0  0
 24 68  1  0  0  0
 25 69  1  0  0  0
 25 70  1  0  0  0
 26 27  2  0  0  0
 26 32  1  0  0  0
 27 28  1  0  0  0
 28 29  2  0  0  0
 28 71  1  0  0  0
 29 30  1  0  0  0
 29 31  1  0  0  0
 31 32  2  0  0  0
 31 72  1  0  0  0
 32 33  1  0  0  0
 34 35  2  0  0  0
 34 36  2  0  0  0
 34 37  1  0  0  0
 37 38  2  0  0  0
 37 42  1  0  0  0
 38 39  1  0  0  0
 38 73  1  0  0  0
 39 40  2  0  0  0
 39 74  1  0  0  0
 40 41  1  0  0  0
 40 75  1  0  0  0
 41 42  2  0  0  0
 41 76  1  0  0  0
 42 43  1  0  0  0
M  END
> <chembl_id>
CHEMBL3649420

> <chembl_pref_name>
None

> <i_m_ct_stereo_status>
1

> <s_m_source_file>
sdf/inactives_sanitized.sdf

> <i_m_source_file_index>
78

> <i_lp_mmshare_version>
49012

> <i_f3d_flags>
0

> <s_epik_input>
W0NIM11bQ0gyXVtDSDJdW0NIMl1bTkhdQyg9TylDKD1PKVtDQEhdKFtDSDJdW0NIM10pW05IXUMoPU8pW0NAQEhdMVtDSDJdW0NAQEhdKFMoPU8pKD1PKWMyW2NIXVtjSF1bY0hdW2NIXWMyQ2wpW0NIMl1OMUMoPU8pQzMoW0NIMl1bQ0gyXTMpYzRuW2NIXWMoQ2wpW2NIXWM0Rg==

> <s_epik_cmdline>
J2VwaWtfcHl0aG9uJywgJy1waHQnLCAnMC41JywgJy1waCcsICc3LjUnLCAnLW50JywgJy1tYScsICcyMDAnLCAnLWltYWUnLCAnPGluZmlsZS5tYWU+JywgJy1vbWFlJywgJzxvdXRmaWxlLm1hZT4n

> <r_lp_tautomer_probability>
1

> <r_epik_Ionization_Penalty>
  0.0000

> <r_epik_Ionization_Penalty_Charging>
  0.0000

> <r_epik_Ionization_Penalty_Neutral>
  0.0000

> <r_epik_State_Penalty>
 -0.0000

> <r_epik_Charging_Adjusted_Penalty>
0

> <i_epik_Tot_Q>
0

> <i_epik_Tot_abs_Q>
0

> <s_lp_Force_Field>
OPLS3e

> <r_lp_Energy>
51.587455

> <b_lp_Chiralities_Consistent>
1

> <s_lp_Variant>
sdf/inactives_sanitized.sdf:78-1

$$$$
sdf/inactives_sanitized.sdf:79
                    3D
 Schrodinger Suite 2020-1.
 58 62  0  0  1  0            999 V2000
   -0.5941    1.5841    2.5459 F   0  0  0  0  0  0
   -0.7858    2.1907    1.3515 C   0  0  0  0  0  0
   -1.2592    3.5022    1.3185 C   0  0  0  0  0  0
   -1.4684    4.1698    0.1025 C   0  0  0  0  0  0
   -1.1885    3.4768   -1.0844 C   0  0  0  0  0  0
   -0.7178    2.1644   -1.0587 C   0  0  0  0  0  0
   -0.5116    1.5131    0.1592 C   0  0  0  0  0  0
    0.0094    0.0805    0.1751 C   0  0  0  0  0  0
    1.5492   -0.0200    0.1451 C   0  0  2  0  0  0
    1.9716   -1.4224    0.0878 N   0  0  0  0  0  0
    3.2444   -1.8698    0.0751 C   0  0  0  0  0  0
    4.2079   -1.1038    0.1140 O   0  0  0  0  0  0
    3.4721   -3.4042    0.0244 C   0  0  2  0  0  0
    2.8540   -4.1473    1.2441 C   0  0  0  0  0  0
    2.9894   -5.6865    1.0623 C   0  0  0  0  0  0
    3.6693   -6.0437   -0.2905 C   0  0  2  0  0  0
    5.0689   -5.3673   -0.3347 C   0  0  0  0  0  0
    4.9596   -3.8241   -0.1721 C   0  0  0  0  0  0
    2.8094   -5.4189   -1.4276 C   0  0  0  0  0  0
    2.7062   -3.8829   -1.2363 N   0  3  0  0  0  0
    2.1867    0.7144    1.2585 C   0  0  0  0  0  0
    2.6864    1.2892    2.1299 N   0  0  0  0  0  0
   -1.9731    5.5763    0.0729 C   0  0  0  0  0  0
   -1.5520    6.4751   -0.9248 C   0  0  0  0  0  0
   -2.0166    7.7926   -0.9589 C   0  0  0  0  0  0
   -2.9160    8.2242    0.0136 C   0  0  0  0  0  0
   -3.5819    9.5451    0.2407 C   0  0  0  0  0  0
   -4.4324    9.2904    1.4880 C   0  0  0  0  0  0
   -5.1590   10.1097    2.0455 O   0  0  0  0  0  0
   -4.2223    8.0074    1.8404 N   0  0  0  0  0  0
   -3.3370    7.3536    0.9966 C   0  0  0  0  0  0
   -2.8808    6.0375    1.0422 C   0  0  0  0  0  0
   -1.4521    4.0024    2.2563 H   0  0  0  0  0  0
   -1.3445    3.9493   -2.0432 H   0  0  0  0  0  0
   -0.5124    1.6567   -1.9900 H   0  0  0  0  0  0
   -0.3913   -0.4431    1.0451 H   0  0  0  0  0  0
   -0.4069   -0.4448   -0.6866 H   0  0  0  0  0  0
    1.9005    0.4659   -0.7674 H   0  0  0  0  0  0
    1.2281   -2.0959   -0.0217 H   0  0  0  0  0  0
    3.3550   -3.8391    2.1639 H   0  0  0  0  0  0
    1.8015   -3.8884    1.3749 H   0  0  0  0  0  0
    3.5672   -6.1075    1.8869 H   0  0  0  0  0  0
    2.0077   -6.1591    1.1222 H   0  0  0  0  0  0
    3.7533   -7.1245   -0.4134 H   0  0  0  0  0  0
    5.7017   -5.7793    0.4533 H   0  0  0  0  0  0
    5.5730   -5.6108   -1.2715 H   0  0  0  0  0  0
    5.5583   -3.5022    0.6822 H   0  0  0  0  0  0
    5.3917   -3.3306   -1.0451 H   0  0  0  0  0  0
    3.2439   -5.5657   -2.4174 H   0  0  0  0  0  0
    1.7824   -5.7867   -1.4323 H   0  0  0  0  0  0
    3.0865   -3.4232   -2.0516 H   0  0  0  0  0  0
   -0.8468    6.1612   -1.6804 H   0  0  0  0  0  0
   -1.6727    8.4606   -1.7348 H   0  0  0  0  0  0
   -2.8623   10.3402    0.4375 H   0  0  0  0  0  0
   -4.2225    9.8311   -0.5941 H   0  0  0  0  0  0
   -4.6640    7.5749    2.6385 H   0  0  0  0  0  0
   -3.2350    5.3730    1.8168 H   0  0  0  0  0  0
    1.7325   -3.6265   -1.1597 H   0  0  0  0  0  0
  1  2  1  0  0  0
  2  3  2  0  0  0
  2  7  1  0  0  0
  3  4  1  0  0  0
  3 33  1  0  0  0
  4  5  2  0  0  0
  4 23  1  0  0  0
  5  6  1  0  0  0
  5 34  1  0  0  0
  6  7  2  0  0  0
  6 35  1  0  0  0
  7  8  1  0  0  0
  8  9  1  0  0  0
  8 36  1  0  0  0
  8 37  1  0  0  0
  9 10  1  0  0  0
  9 21  1  0  0  0
  9 38  1  0  0  0
 10 11  1  0  0  0
 10 39  1  0  0  0
 11 12  2  0  0  0
 11 13  1  0  0  0
 13 14  1  0  0  0
 13 18  1  0  0  0
 13 20  1  0  0  0
 14 15  1  0  0  0
 14 40  1  0  0  0
 14 41  1  0  0  0
 15 16  1  0  0  0
 15 42  1  0  0  0
 15 43  1  0  0  0
 16 17  1  0  0  0
 16 19  1  0  0  0
 16 44  1  0  0  0
 17 18  1  0  0  0
 17 45  1  0  0  0
 17 46  1  0  0  0
 18 47  1  0  0  0
 18 48  1  0  0  0
 19 20  1  0  0  0
 19 49  1  0  0  0
 19 50  1  0  0  0
 20 51  1  0  0  0
 20 58  1  0  0  0
 21 22  3  0  0  0
 23 24  2  0  0  0
 23 32  1  0  0  0
 24 25  1  0  0  0
 24 52  1  0  0  0
 25 26  2  0  0  0
 25 53  1  0  0  0
 26 27  1  0  0  0
 26 31  1  0  0  0
 27 28  1  0  0  0
 27 54  1  0  0  0
 27 55  1  0  0  0
 28 29  2  0  0  0
 28 30  1  0  0  0
 30 31  1  0  0  0
 30 56  1  0  0  0
 31 32  2  0  0  0
 32 57  1  0  0  0
M  CHG  1  20   1
M  END
> <chembl_id>
CHEMBL3702587

> <chembl_pref_name>
None

> <i_m_ct_stereo_status>
1

> <s_m_source_file>
sdf/inactives_sanitized.sdf

> <i_m_source_file_index>
79

> <i_lp_mmshare_version>
49012

> <i_f3d_flags>
0

> <s_epik_input>
W0NIMl0xQyg9TylbTkhdYyhjMTIpW2NIXWMoW2NIXVtjSF0yKS1jKFtjSF1jM0YpW2NIXVtjSF1jM1tDSDJdW0NAQEhdKEMjTilbTkhdQyg9TylbQ0BdNDVbQ0gyXVtDSDJdW0NASF0oW0NIMl1bQ0gyXTQpW0NIMl1bTkhdNQ==

> <s_epik_cmdline>
J2VwaWtfcHl0aG9uJywgJy1waHQnLCAnMC41JywgJy1waCcsICc3LjUnLCAnLW50JywgJy1tYScsICcyMDAnLCAnLWltYWUnLCAnPGluZmlsZS5tYWU+JywgJy1vbWFlJywgJzxvdXRmaWxlLm1hZT4n

> <r_epik_Ionization_Penalty>
  0.2492

> <r_epik_Ionization_Penalty_Charging>
  0.2491

> <r_epik_Ionization_Penalty_Neutral>
  0.0001

> <r_epik_State_Penalty>
  0.2404

> <r_epik_Charging_Adjusted_Penalty>
0.489493738808436

> <i_epik_Tot_Q>
1

> <i_epik_Tot_abs_Q>
1

> <s_lp_Force_Field>
OPLS3e

> <r_lp_Energy>
53.544494

> <b_lp_Chiralities_Consistent>
1

> <s_lp_Variant>
sdf/inactives_sanitized.sdf:79-1

$$$$
sdf/inactives_sanitized.sdf:79
                    3D
 Schrodinger Suite 2020-1.
 57 61  0  0  1  0            999 V2000
   -0.4305    1.5472   -2.2955 F   0  0  0  0  0  0
   -0.7387    2.1710   -1.1350 C   0  0  0  0  0  0
   -1.1912    3.4905   -1.1652 C   0  0  0  0  0  0
   -1.5165    4.1746    0.0158 C   0  0  0  0  0  0
   -1.3773    3.4891    1.2319 C   0  0  0  0  0  0
   -0.9272    2.1700    1.2687 C   0  0  0  0  0  0
   -0.6025    1.5028    0.0857 C   0  0  0  0  0  0
   -0.0952    0.0654    0.1324 C   0  0  0  0  0  0
    1.4195   -0.0606   -0.1339 C   0  0  2  0  0  0
    1.8341   -1.4658   -0.1306 N   0  0  0  0  0  0
    3.0875   -1.9236   -0.3321 C   0  0  0  0  0  0
    4.0273   -1.1567   -0.5508 O   0  0  0  0  0  0
    3.3591   -3.4577   -0.2762 C   0  0  2  0  0  0
    4.1371   -3.7933    1.0362 C   0  0  0  0  0  0
    4.4279   -5.3182    1.1188 C   0  0  0  0  0  0
    3.8354   -6.0487   -0.1159 C   0  0  2  0  0  0
    4.4698   -5.4621   -1.4082 C   0  0  0  0  0  0
    4.2017   -3.9320   -1.5025 C   0  0  0  0  0  0
    2.3200   -5.6866   -0.1531 C   0  0  0  0  0  0
    2.0944   -4.2315   -0.2799 N   0  0  2  0  0  0
    2.2146    0.7605    0.8036 C   0  0  0  0  0  0
    2.8355    1.4042    1.5383 N   0  0  0  0  0  0
   -1.9964    5.5899   -0.0183 C   0  0  0  0  0  0
   -2.7823    6.0626   -1.0858 C   0  0  0  0  0  0
   -3.2415    7.3821   -1.1215 C   0  0  0  0  0  0
   -2.9133    8.2474   -0.0801 C   0  0  0  0  0  0
   -3.2495    9.6848    0.1669 C   0  0  0  0  0  0
   -2.5503    9.9771    1.4972 C   0  0  0  0  0  0
   -2.5513   11.0521    2.0927 O   0  0  0  0  0  0
   -1.9452    8.8334    1.8716 N   0  0  0  0  0  0
   -2.1401    7.7984    0.9697 C   0  0  0  0  0  0
   -1.6764    6.4850    1.0174 C   0  0  0  0  0  0
   -1.2742    3.9839   -2.1225 H   0  0  0  0  0  0
   -1.6265    3.9730    2.1648 H   0  0  0  0  0  0
   -0.8273    1.6713    2.2220 H   0  0  0  0  0  0
   -0.3341   -0.3756    1.1022 H   0  0  0  0  0  0
   -0.6568   -0.5213   -0.5966 H   0  0  0  0  0  0
    1.6265    0.3395   -1.1282 H   0  0  0  0  0  0
    1.0946   -2.1470   -0.0365 H   0  0  0  0  0  0
    5.0787   -3.2419    1.0797 H   0  0  0  0  0  0
    3.5664   -3.4821    1.9139 H   0  0  0  0  0  0
    5.5034   -5.4927    1.1737 H   0  0  0  0  0  0
    4.0108   -5.7330    2.0378 H   0  0  0  0  0  0
    3.9851   -7.1269   -0.0504 H   0  0  0  0  0  0
    5.5433   -5.6570   -1.4184 H   0  0  0  0  0  0
    4.0661   -5.9694   -2.2858 H   0  0  0  0  0  0
    5.1548   -3.4014   -1.5447 H   0  0  0  0  0  0
    3.6885   -3.7028   -2.4386 H   0  0  0  0  0  0
    1.8342   -6.1876   -0.9912 H   0  0  0  0  0  0
    1.8224   -6.0410    0.7504 H   0  0  0  0  0  0
    1.6372   -4.0793   -1.1677 H   0  0  0  0  0  0
   -3.0566    5.4029   -1.8958 H   0  0  0  0  0  0
   -3.8467    7.7151   -1.9518 H   0  0  0  0  0  0
   -2.8559   10.3397   -0.6111 H   0  0  0  0  0  0
   -4.3236    9.8437    0.2689 H   0  0  0  0  0  0
   -1.4043    8.7475    2.7197 H   0  0  0  0  0  0
   -1.0639    6.1622    1.8466 H   0  0  0  0  0  0
  1  2  1  0  0  0
  2  3  2  0  0  0
  2  7  1  0  0  0
  3  4  1  0  0  0
  3 33  1  0  0  0
  4  5  2  0  0  0
  4 23  1  0  0  0
  5  6  1  0  0  0
  5 34  1  0  0  0
  6  7  2  0  0  0
  6 35  1  0  0  0
  7  8  1  0  0  0
  8  9  1  0  0  0
  8 36  1  0  0  0
  8 37  1  0  0  0
  9 10  1  0  0  0
  9 21  1  0  0  0
  9 38  1  0  0  0
 10 11  1  0  0  0
 10 39  1  0  0  0
 11 12  2  0  0  0
 11 13  1  0  0  0
 13 14  1  0  0  0
 13 18  1  0  0  0
 13 20  1  0  0  0
 14 15  1  0  0  0
 14 40  1  0  0  0
 14 41  1  0  0  0
 15 16  1  0  0  0
 15 42  1  0  0  0
 15 43  1  0  0  0
 16 17  1  0  0  0
 16 19  1  0  0  0
 16 44  1  0  0  0
 17 18  1  0  0  0
 17 45  1  0  0  0
 17 46  1  0  0  0
 18 47  1  0  0  0
 18 48  1  0  0  0
 19 20  1  0  0  0
 19 49  1  0  0  0
 19 50  1  0  0  0
 20 51  1  0  0  0
 21 22  3  0  0  0
 23 24  2  0  0  0
 23 32  1  0  0  0
 24 25  1  0  0  0
 24 52  1  0  0  0
 25 26  2  0  0  0
 25 53  1  0  0  0
 26 27  1  0  0  0
 26 31  1  0  0  0
 27 28  1  0  0  0
 27 54  1  0  0  0
 27 55  1  0  0  0
 28 29  2  0  0  0
 28 30  1  0  0  0
 30 31  1  0  0  0
 30 56  1  0  0  0
 31 32  2  0  0  0
 32 57  1  0  0  0
M  END
> <chembl_id>
CHEMBL3702587

> <chembl_pref_name>
None

> <i_m_ct_stereo_status>
1

> <s_m_source_file>
sdf/inactives_sanitized.sdf

> <i_m_source_file_index>
79

> <i_lp_mmshare_version>
49012

> <i_f3d_flags>
0

> <s_epik_input>
W0NIMl0xQyg9TylbTkhdYyhjMTIpW2NIXWMoW2NIXVtjSF0yKS1jKFtjSF1jM0YpW2NIXVtjSF1jM1tDSDJdW0NAQEhdKEMjTilbTkhdQyg9TylbQ0BdNDVbQ0gyXVtDSDJdW0NASF0oW0NIMl1bQ0gyXTQpW0NIMl1bTkhdNQ==

> <s_epik_cmdline>
J2VwaWtfcHl0aG9uJywgJy1waHQnLCAnMC41JywgJy1waCcsICc3LjUnLCAnLW50JywgJy1tYScsICcyMDAnLCAnLWltYWUnLCAnPGluZmlsZS5tYWU+JywgJy1vbWFlJywgJzxvdXRmaWxlLm1hZT4n

> <r_epik_Ionization_Penalty>
  0.6336

> <r_epik_Ionization_Penalty_Charging>
  0.0000

> <r_epik_Ionization_Penalty_Neutral>
  0.6336

> <r_epik_State_Penalty>
  0.6506

> <r_epik_Charging_Adjusted_Penalty>
0.650608926039391

> <i_epik_Tot_Q>
0

> <i_epik_Tot_abs_Q>
0

> <s_lp_Force_Field>
OPLS3e

> <r_lp_Energy>
47.700674

> <b_lp_Chiralities_Consistent>
1

> <s_lp_Variant>
sdf/inactives_sanitized.sdf:79-2

$$$$
sdf/inactives_sanitized.sdf:80
                    3D
 Schrodinger Suite 2020-1.
 61 61  0  0  1  0            999 V2000
    1.3676   -1.5765   -1.4887 C   0  0  0  0  0  0
   -0.7623    1.0252   -0.2320 C   0  0  0  0  0  0
    1.3845   -0.9121   -2.9343 C   0  0  0  0  0  0
   -0.3276   -0.2725   -0.4677 N   0  0  0  0  0  0
    1.0920   -0.6322   -0.3191 C   0  0  1  0  0  0
   -2.1089    1.0531   -0.3386 O   0  0  0  0  0  0
   -2.8711    2.2487   -0.1276 C   0  0  0  0  0  0
    1.5137   -1.8225   -3.9184 N   0  0  0  0  0  0
    1.6094   -2.7806   -1.3540 O   0  0  0  0  0  0
   -0.0554    1.9971    0.0451 O   0  0  0  0  0  0
    2.9033   -0.4616   -7.1215 N   0  0  0  0  0  0
    1.2875    0.3067   -3.0878 O   0  0  0  0  0  0
    1.6051   -1.5050   -5.3456 C   0  0  0  0  0  0
    2.9311   -0.9229   -5.8418 C   0  0  0  0  0  0
   -3.9271    1.9656    0.9843 C   0  0  0  0  0  0
   -3.4332    2.7459   -1.4948 C   0  0  0  0  0  0
    1.3993   -1.2938    1.0542 C   0  0  0  0  0  0
    4.0423    0.0657   -7.6395 C   0  0  0  0  0  0
   -4.8695    3.1597    1.2413 C   0  0  0  0  0  0
   -4.4079    1.7521   -2.1606 C   0  0  0  0  0  0
   -2.3098    3.1468   -2.4724 C   0  0  0  0  0  0
   -3.2609    1.5359    2.3097 C   0  0  0  0  0  0
    4.0933   -0.8762   -5.0569 C   0  0  0  0  0  0
    1.1686   -0.3671    2.2657 C   0  0  0  0  0  0
    1.5706   -1.0146    3.6019 C   0  0  0  0  0  0
    5.2343    0.1502   -6.9189 C   0  0  0  0  0  0
    1.3144   -0.1007    4.8079 C   0  0  0  0  0  0
    5.2541   -0.3298   -5.6085 C   0  0  0  0  0  0
   -1.0095   -1.0136   -0.5368 H   0  0  0  0  0  0
    1.7480    0.2358   -0.4260 H   0  0  0  0  0  0
   -2.2338    3.0458    0.2611 H   0  0  0  0  0  0
    1.5985   -2.7968   -3.6663 H   0  0  0  0  0  0
    1.4250   -2.4281   -5.8978 H   0  0  0  0  0  0
    0.7909   -0.8294   -5.6183 H   0  0  0  0  0  0
   -4.5476    1.1286    0.6607 H   0  0  0  0  0  0
   -3.9886    3.6647   -1.3069 H   0  0  0  0  0  0
    0.7804   -2.1844    1.1829 H   0  0  0  0  0  0
    2.4381   -1.6299    1.0673 H   0  0  0  0  0  0
    3.9875    0.4247   -8.6567 H   0  0  0  0  0  0
   -4.3108    4.0594    1.5022 H   0  0  0  0  0  0
   -5.5588    2.9505    2.0604 H   0  0  0  0  0  0
   -5.4839    3.3872    0.3705 H   0  0  0  0  0  0
   -3.9228    0.8000   -2.3792 H   0  0  0  0  0  0
   -4.7919    2.1485   -3.1012 H   0  0  0  0  0  0
   -5.2710    1.5481   -1.5272 H   0  0  0  0  0  0
   -1.7188    2.2852   -2.7856 H   0  0  0  0  0  0
   -1.6289    3.8675   -2.0182 H   0  0  0  0  0  0
   -2.7161    3.6081   -3.3733 H   0  0  0  0  0  0
   -2.5948    2.3113    2.6902 H   0  0  0  0  0  0
   -2.6721    0.6259    2.1903 H   0  0  0  0  0  0
   -4.0049    1.3312    3.0805 H   0  0  0  0  0  0
    4.1084   -1.2530   -4.0451 H   0  0  0  0  0  0
    1.7318    0.5574    2.1286 H   0  0  0  0  0  0
    0.1163   -0.0846    2.3164 H   0  0  0  0  0  0
    1.0197   -1.9464    3.7379 H   0  0  0  0  0  0
    2.6273   -1.2849    3.5760 H   0  0  0  0  0  0
    6.1214    0.5756   -7.3649 H   0  0  0  0  0  0
    1.6088   -0.5901    5.7366 H   0  0  0  0  0  0
    0.2581    0.1580    4.8908 H   0  0  0  0  0  0
    1.8813    0.8275    4.7287 H   0  0  0  0  0  0
    6.1617   -0.2808   -5.0250 H   0  0  0  0  0  0
  1  3  1  0  0  0
  1  5  1  0  0  0
  1  9  2  0  0  0
  2  4  1  0  0  0
  2  6  1  0  0  0
  2 10  2  0  0  0
  3  8  1  0  0  0
  3 12  2  0  0  0
  4  5  1  0  0  0
  4 29  1  0  0  0
  5 17  1  0  0  0
  5 30  1  0  0  0
  6  7  1  0  0  0
  7 15  1  0  0  0
  7 16  1  0  0  0
  7 31  1  0  0  0
  8 13  1  0  0  0
  8 32  1  0  0  0
 11 14  2  0  0  0
 11 18  1  0  0  0
 13 14  1  0  0  0
 13 33  1  0  0  0
 13 34  1  0  0  0
 14 23  1  0  0  0
 15 19  1  0  0  0
 15 22  1  0  0  0
 15 35  1  0  0  0
 16 20  1  0  0  0
 16 21  1  0  0  0
 16 36  1  0  0  0
 17 24  1  0  0  0
 17 37  1  0  0  0
 17 38  1  0  0  0
 18 26  2  0  0  0
 18 39  1  0  0  0
 19 40  1  0  0  0
 19 41  1  0  0  0
 19 42  1  0  0  0
 20 43  1  0  0  0
 20 44  1  0  0  0
 20 45  1  0  0  0
 21 46  1  0  0  0
 21 47  1  0  0  0
 21 48  1  0  0  0
 22 49  1  0  0  0
 22 50  1  0  0  0
 22 51  1  0  0  0
 23 28  2  0  0  0
 23 52  1  0  0  0
 24 25  1  0  0  0
 24 53  1  0  0  0
 24 54  1  0  0  0
 25 27  1  0  0  0
 25 55  1  0  0  0
 25 56  1  0  0  0
 26 28  1  0  0  0
 26 57  1  0  0  0
 27 58  1  0  0  0
 27 59  1  0  0  0
 27 60  1  0  0  0
 28 61  1  0  0  0
M  END
> <chembl_id>
CHEMBL446669

> <chembl_pref_name>
None

> <i_m_ct_stereo_status>
1

> <s_m_source_file>
sdf/inactives_sanitized.sdf

> <i_m_source_file_index>
80

> <i_lp_mmshare_version>
49012

> <i_f3d_flags>
0

> <s_epik_input>
W0NIM11bQ0hdKFtDSDNdKVtDSF0oW0NIXShbQ0gzXSlbQ0gzXSlPQyg9TylbTkhdW0NAQEhdKFtDSDJdW0NIMl1bQ0gyXVtDSDNdKUMoPU8pQyg9TylbTkhdW0NIMl1jMW5bY0hdW2NIXVtjSF1bY0hdMQ==

> <s_epik_cmdline>
J2VwaWtfcHl0aG9uJywgJy1waHQnLCAnMC41JywgJy1waCcsICc3LjUnLCAnLW50JywgJy1tYScsICcyMDAnLCAnLWltYWUnLCAnPGluZmlsZS5tYWU+JywgJy1vbWFlJywgJzxvdXRmaWxlLm1hZT4n

> <r_lp_tautomer_probability>
1

> <r_epik_Ionization_Penalty>
  0.0012

> <r_epik_Ionization_Penalty_Charging>
  0.0000

> <r_epik_Ionization_Penalty_Neutral>
  0.0012

> <r_epik_State_Penalty>
 -0.0000

> <r_epik_Charging_Adjusted_Penalty>
0

> <i_epik_Tot_Q>
0

> <i_epik_Tot_abs_Q>
0

> <s_epik_Chemistry_Notes>
This compound has an ester and may undergo hydrolysis at high or low pH.

> <s_lp_Force_Field>
OPLS3e

> <r_lp_Energy>
33.156626

> <b_lp_Chiralities_Consistent>
1

> <s_lp_Variant>
sdf/inactives_sanitized.sdf:80-1

$$$$
sdf/inactives_sanitized.sdf:81
                    3D
 Schrodinger Suite 2020-1.
 61 63  0  0  1  0            999 V2000
   -2.1293    0.6052    0.6698 C   0  0  0  0  0  0
   -2.6028    0.0427    2.0664 C   0  0  0  0  0  0
   -3.0521    1.0400    3.1566 C   0  0  0  0  0  0
   -3.8261    2.2522    2.6322 C   0  0  0  0  0  0
   -3.0216    2.9805    1.5528 C   0  0  0  0  0  0
   -2.5739    2.0893    0.3744 C   0  0  0  0  0  0
   -6.4089   -1.3401   -1.6861 C   0  0  0  0  0  0
   -5.2593   -1.8464   -2.2928 C   0  0  0  0  0  0
   -4.0042   -1.4603   -1.8310 C   0  0  0  0  0  0
   -3.8758   -0.5686   -0.7641 C   0  0  0  0  0  0
   -5.0371   -0.0621   -0.1652 C   0  0  0  0  0  0
   -6.2953   -0.4453   -0.6217 C   0  0  0  0  0  0
   -2.5715   -0.2699   -0.4003 O   0  0  0  0  0  0
   -0.5776    0.6565    0.7534 C   0  0  0  0  0  0
    0.1135   -0.0364   -0.1704 N   0  0  0  0  0  0
   -0.0230    1.3236    1.6318 O   0  0  0  0  0  0
    1.5719   -0.1024   -0.2552 C   0  0  0  0  0  0
    2.0655   -1.3176   -1.0611 C   0  0  0  0  0  0
    1.6652   -1.2967   -2.4670 N   0  0  0  0  0  0
    2.4148   -0.6601   -3.4728 C   0  0  0  0  0  0
    3.6367   -0.0170   -3.2350 C   0  0  0  0  0  0
    4.3199    0.5960   -4.2815 C   0  0  0  0  0  0
    3.8011    0.5805   -5.5759 C   0  0  0  0  0  0
    2.5759   -0.0610   -5.8129 C   0  0  0  0  0  0
    1.8911   -0.6735   -4.7666 C   0  0  0  0  0  0
    4.5506    1.2144   -6.5483 O   0  0  0  0  0  0
    4.0734    1.2363   -7.8893 C   0  0  0  0  0  0
   -7.7835   -1.7607   -2.1851 C   0  0  0  0  0  0
   -8.3336   -0.8233   -3.2693 C   0  0  0  0  0  0
   -3.5322   -0.4908    1.8875 H   0  0  0  0  0  0
   -1.9845   -0.7765    2.4399 H   0  0  0  0  0  0
   -3.6420    0.5235    3.9153 H   0  0  0  0  0  0
   -2.1617    1.3986    3.6750 H   0  0  0  0  0  0
   -4.8056    1.9602    2.2596 H   0  0  0  0  0  0
   -4.0242    2.9378    3.4571 H   0  0  0  0  0  0
   -3.5890    3.8345    1.1799 H   0  0  0  0  0  0
   -2.1293    3.4042    2.0155 H   0  0  0  0  0  0
   -1.9405    2.5993   -0.3547 H   0  0  0  0  0  0
   -3.4999    2.0263   -0.1909 H   0  0  0  0  0  0
   -5.3355   -2.5373   -3.1199 H   0  0  0  0  0  0
   -3.1201   -1.8595   -2.3068 H   0  0  0  0  0  0
   -4.9893    0.6276    0.6550 H   0  0  0  0  0  0
   -7.1796   -0.0454   -0.1467 H   0  0  0  0  0  0
   -0.4008   -0.5260   -0.8883 H   0  0  0  0  0  0
    1.9254    0.8190   -0.7214 H   0  0  0  0  0  0
    2.0157   -0.1369    0.7418 H   0  0  0  0  0  0
    3.1509   -1.3789   -0.9910 H   0  0  0  0  0  0
    1.7122   -2.2456   -0.6104 H   0  0  0  0  0  0
    0.7007   -1.5120   -2.6754 H   0  0  0  0  0  0
    4.0718    0.0290   -2.2490 H   0  0  0  0  0  0
    5.2604    1.0894   -4.0844 H   0  0  0  0  0  0
    2.1402   -0.0947   -6.7999 H   0  0  0  0  0  0
    0.9489   -1.1616   -4.9710 H   0  0  0  0  0  0
    4.7858    1.7728   -8.5156 H   0  0  0  0  0  0
    3.1147    1.7518   -7.9644 H   0  0  0  0  0  0
    3.9715    0.2285   -8.2949 H   0  0  0  0  0  0
   -7.7340   -2.7822   -2.5661 H   0  0  0  0  0  0
   -8.4757   -1.8018   -1.3427 H   0  0  0  0  0  0
   -9.3174   -1.1530   -3.6043 H   0  0  0  0  0  0
   -7.6791   -0.7975   -4.1414 H   0  0  0  0  0  0
   -8.4364    0.1968   -2.8970 H   0  0  0  0  0  0
  1 14  1  0  0  0
  1  2  1  0  0  0
  1  6  1  0  0  0
  1 13  1  0  0  0
  2  3  1  0  0  0
  2 30  1  0  0  0
  2 31  1  0  0  0
  3  4  1  0  0  0
  3 32  1  0  0  0
  3 33  1  0  0  0
  4  5  1  0  0  0
  4 34  1  0  0  0
  4 35  1  0  0  0
  5  6  1  0  0  0
  5 36  1  0  0  0
  5 37  1  0  0  0
  6 38  1  0  0  0
  6 39  1  0  0  0
  7  8  2  0  0  0
  7 12  1  0  0  0
  7 28  1  0  0  0
  8  9  1  0  0  0
  8 40  1  0  0  0
  9 10  2  0  0  0
  9 41  1  0  0  0
 10 11  1  0  0  0
 10 13  1  0  0  0
 11 12  2  0  0  0
 11 42  1  0  0  0
 12 43  1  0  0  0
 14 15  1  0  0  0
 14 16  2  0  0  0
 15 17  1  0  0  0
 15 44  1  0  0  0
 17 18  1  0  0  0
 17 45  1  0  0  0
 17 46  1  0  0  0
 18 19  1  0  0  0
 18 47  1  0  0  0
 18 48  1  0  0  0
 19 20  1  0  0  0
 19 49  1  0  0  0
 20 21  2  0  0  0
 20 25  1  0  0  0
 21 22  1  0  0  0
 21 50  1  0  0  0
 22 23  2  0  0  0
 22 51  1  0  0  0
 23 24  1  0  0  0
 23 26  1  0  0  0
 24 25  2  0  0  0
 24 52  1  0  0  0
 25 53  1  0  0  0
 26 27  1  0  0  0
 27 54  1  0  0  0
 27 55  1  0  0  0
 27 56  1  0  0  0
 28 29  1  0  0  0
 28 57  1  0  0  0
 28 58  1  0  0  0
 29 59  1  0  0  0
 29 60  1  0  0  0
 29 61  1  0  0  0
M  END
> <chembl_id>
CHEMBL383685

> <chembl_pref_name>
None

> <s_m_source_file>
sdf/inactives_sanitized.sdf

> <i_m_source_file_index>
81

> <i_lp_mmshare_version>
49012

> <i_m_ct_stereo_status>
1

> <i_f3d_flags>
0

> <s_epik_input>
W0NIM11bQ0gyXWMxW2NIXVtjSF1jKFtjSF1bY0hdMSlPQzIoW0NIMl1bQ0gyXVtDSDJdW0NIMl1bQ0gyXTIpQyg9TylbTkhdW0NIMl1bQ0gyXVtOSF1jM1tjSF1bY0hdYyhbY0hdW2NIXTMpT1tDSDNd

> <s_epik_cmdline>
J2VwaWtfcHl0aG9uJywgJy1waHQnLCAnMC41JywgJy1waCcsICc3LjUnLCAnLW50JywgJy1tYScsICcyMDAnLCAnLWltYWUnLCAnPGluZmlsZS5tYWU+JywgJy1vbWFlJywgJzxvdXRmaWxlLm1hZT4n

> <r_lp_tautomer_probability>
1

> <r_epik_Ionization_Penalty>
  0.0016

> <r_epik_Ionization_Penalty_Charging>
  0.0000

> <r_epik_Ionization_Penalty_Neutral>
  0.0016

> <r_epik_State_Penalty>
 -0.0000

> <r_epik_Charging_Adjusted_Penalty>
0

> <i_epik_Tot_Q>
0

> <i_epik_Tot_abs_Q>
0

> <s_lp_Force_Field>
OPLS3e

> <r_lp_Energy>
44.312266

> <b_lp_Chiralities_Consistent>
1

> <s_lp_Variant>
sdf/inactives_sanitized.sdf:81-1

$$$$
sdf/inactives_sanitized.sdf:82
                    3D
 Schrodinger Suite 2020-1.
 70 72  0  0  1  0            999 V2000
   -3.2750   -3.7083   -7.0687 C   0  0  0  0  0  0
   -2.4202   -2.7661   -7.6363 C   0  0  0  0  0  0
   -1.9199   -1.7283   -6.8539 C   0  0  0  0  0  0
   -2.2723   -1.6367   -5.5048 C   0  0  0  0  0  0
   -3.1382   -2.5826   -4.9438 C   0  0  0  0  0  0
   -3.6372   -3.6206   -5.7264 C   0  0  0  0  0  0
   -1.7225   -0.4865   -4.6715 C   0  0  0  0  0  0
   -1.4163   -0.9166   -3.3484 O   0  0  0  0  0  0
   -0.9367   -0.0520   -2.4348 C   0  0  0  0  0  0
   -0.7366   -0.7317   -1.2383 N   0  0  0  0  0  0
   -0.7162    1.1442   -2.6424 O   0  0  0  0  0  0
   -0.1608   -0.0560   -0.0617 C   0  0  2  0  0  0
    1.3576    0.2121   -0.2005 C   0  0  0  0  0  0
   -0.4433   -0.9097    1.2050 C   0  0  0  0  0  0
    1.8220    1.3023    0.4323 N   0  0  0  0  0  0
    2.0711   -0.5657   -0.8370 O   0  0  0  0  0  0
   -1.9397   -1.1080    1.5504 C   0  0  0  0  0  0
   -2.6703    0.2278    1.8037 C   0  0  0  0  0  0
   -2.1106   -2.0954    2.7246 C   0  0  0  0  0  0
    3.2154    1.7415    0.4037 C   0  0  2  0  0  0
    3.5186    2.4934    1.6341 C   0  0  0  0  0  0
    3.5630    2.5257   -0.8817 C   0  0  0  0  0  0
    3.7567    3.0842    2.6004 N   0  0  0  0  0  0
    5.0287    2.9302   -0.9584 C   0  0  0  0  0  0
    5.9787    2.0137   -1.4104 C   0  0  0  0  0  0
    7.3217    2.3758   -1.4642 C   0  0  0  0  0  0
    7.7301    3.6502   -1.0678 C   0  0  0  0  0  0
    6.7688    4.5697   -0.6186 C   0  0  0  0  0  0
    5.4251    4.2093   -0.5648 C   0  0  0  0  0  0
    9.0841    3.9142   -1.1473 O   0  0  0  0  0  0
    9.5743    5.1881   -0.7383 C   0  0  0  0  0  0
   11.0894    5.1934   -0.8547 C   0  0  0  0  0  0
   11.7095    5.8301   -1.9334 C   0  0  0  0  0  0
   13.0983    5.8243   -2.0377 C   0  0  0  0  0  0
   13.8613    5.1823   -1.0645 C   0  0  0  0  0  0
   13.2485    4.5443    0.0121 C   0  0  0  0  0  0
   11.8600    4.5491    0.1169 C   0  0  0  0  0  0
   -3.6629   -4.5133   -7.6755 H   0  0  0  0  0  0
   -2.1476   -2.8396   -8.6788 H   0  0  0  0  0  0
   -1.2589   -0.9979   -7.2978 H   0  0  0  0  0  0
   -3.4269   -2.5158   -3.9048 H   0  0  0  0  0  0
   -4.3034   -4.3531   -5.2950 H   0  0  0  0  0  0
   -0.8163   -0.0967   -5.1392 H   0  0  0  0  0  0
   -2.4596    0.3180   -4.6496 H   0  0  0  0  0  0
   -0.8662   -1.7323   -1.2083 H   0  0  0  0  0  0
   -0.6617    0.9069    0.0644 H   0  0  0  0  0  0
    0.0273   -1.8881    1.0860 H   0  0  0  0  0  0
    0.0439   -0.4569    2.0712 H   0  0  0  0  0  0
    1.1688    1.9037    0.9135 H   0  0  0  0  0  0
   -2.4177   -1.5770    0.6895 H   0  0  0  0  0  0
   -3.3698    0.1728    2.6378 H   0  0  0  0  0  0
   -3.2476    0.5206    0.9262 H   0  0  0  0  0  0
   -1.9748    1.0384    2.0223 H   0  0  0  0  0  0
   -2.5015   -1.6167    3.6226 H   0  0  0  0  0  0
   -1.1672   -2.5647    3.0059 H   0  0  0  0  0  0
   -2.7998   -2.8973    2.4581 H   0  0  0  0  0  0
    3.8666    0.8671    0.4762 H   0  0  0  0  0  0
    3.3241    1.9295   -1.7644 H   0  0  0  0  0  0
    2.9341    3.4143   -0.9629 H   0  0  0  0  0  0
    5.6799    1.0208   -1.7144 H   0  0  0  0  0  0
    8.0517    1.6596   -1.8121 H   0  0  0  0  0  0
    7.0446    5.5646   -0.3042 H   0  0  0  0  0  0
    4.6958    4.9230   -0.2097 H   0  0  0  0  0  0
    9.1456    5.9797   -1.3565 H   0  0  0  0  0  0
    9.2990    5.3994    0.2970 H   0  0  0  0  0  0
   11.1200    6.3257   -2.6911 H   0  0  0  0  0  0
   13.5819    6.3139   -2.8701 H   0  0  0  0  0  0
   14.9384    5.1775   -1.1458 H   0  0  0  0  0  0
   13.8475    4.0470    0.7608 H   0  0  0  0  0  0
   11.3842    4.0516    0.9499 H   0  0  0  0  0  0
  1  6  2  0  0  0
  1  2  1  0  0  0
  1 38  1  0  0  0
  2  3  2  0  0  0
  2 39  1  0  0  0
  3  4  1  0  0  0
  3 40  1  0  0  0
  4  5  2  0  0  0
  4  7  1  0  0  0
  5  6  1  0  0  0
  5 41  1  0  0  0
  6 42  1  0  0  0
  7  8  1  0  0  0
  7 43  1  0  0  0
  7 44  1  0  0  0
  8  9  1  0  0  0
  9 10  1  0  0  0
  9 11  2  0  0  0
 10 12  1  0  0  0
 10 45  1  0  0  0
 12 13  1  0  0  0
 12 14  1  0  0  0
 12 46  1  0  0  0
 13 15  1  0  0  0
 13 16  2  0  0  0
 14 17  1  0  0  0
 14 47  1  0  0  0
 14 48  1  0  0  0
 15 20  1  0  0  0
 15 49  1  0  0  0
 17 19  1  0  0  0
 17 18  1  0  0  0
 17 50  1  0  0  0
 18 51  1  0  0  0
 18 52  1  0  0  0
 18 53  1  0  0  0
 19 54  1  0  0  0
 19 55  1  0  0  0
 19 56  1  0  0  0
 20 21  1  0  0  0
 20 22  1  0  0  0
 20 57  1  0  0  0
 21 23  3  0  0  0
 22 24  1  0  0  0
 22 58  1  0  0  0
 22 59  1  0  0  0
 24 25  2  0  0  0
 24 29  1  0  0  0
 25 26  1  0  0  0
 25 60  1  0  0  0
 26 27  2  0  0  0
 26 61  1  0  0  0
 27 28  1  0  0  0
 27 30  1  0  0  0
 28 29  2  0  0  0
 28 62  1  0  0  0
 29 63  1  0  0  0
 30 31  1  0  0  0
 31 32  1  0  0  0
 31 64  1  0  0  0
 31 65  1  0  0  0
 32 33  2  0  0  0
 32 37  1  0  0  0
 33 34  1  0  0  0
 33 66  1  0  0  0
 34 35  2  0  0  0
 34 67  1  0  0  0
 35 36  1  0  0  0
 35 68  1  0  0  0
 36 37  2  0  0  0
 36 69  1  0  0  0
 37 70  1  0  0  0
M  END
> <chembl_id>
CHEMBL383341

> <chembl_pref_name>
None

> <i_m_ct_stereo_status>
1

> <s_m_source_file>
sdf/inactives_sanitized.sdf

> <i_m_source_file_index>
82

> <i_lp_mmshare_version>
49012

> <i_f3d_flags>
0

> <s_epik_input>
W2NIXTFbY0hdW2NIXVtjSF1bY0hdYzFbQ0gyXU9DKD1PKVtOSF1bQ0BASF0oW0NIMl1bQ0hdKFtDSDNdKVtDSDNdKUMoPU8pW05IXVtDQEhdKEMjTilbQ0gyXWMyW2NIXVtjSF1jKFtjSF1bY0hdMilPW0NIMl1jM1tjSF1bY0hdW2NIXVtjSF1bY0hdMw==

> <s_epik_cmdline>
J2VwaWtfcHl0aG9uJywgJy1waHQnLCAnMC41JywgJy1waCcsICc3LjUnLCAnLW50JywgJy1tYScsICcyMDAnLCAnLWltYWUnLCAnPGluZmlsZS5tYWU+JywgJy1vbWFlJywgJzxvdXRmaWxlLm1hZT4n

> <r_lp_tautomer_probability>
1

> <r_epik_Ionization_Penalty>
  0.0000

> <r_epik_Ionization_Penalty_Charging>
  0.0000

> <r_epik_Ionization_Penalty_Neutral>
  0.0000

> <r_epik_State_Penalty>
 -0.0000

> <r_epik_Charging_Adjusted_Penalty>
0

> <i_epik_Tot_Q>
0

> <i_epik_Tot_abs_Q>
0

> <s_epik_Chemistry_Notes>
This compound has an ester and may undergo hydrolysis at high or low pH.

> <s_lp_Force_Field>
OPLS3e

> <r_lp_Energy>
40.870856

> <b_lp_Chiralities_Consistent>
1

> <s_lp_Variant>
sdf/inactives_sanitized.sdf:82-1

$$$$
sdf/inactives_sanitized.sdf:83
                    3D
 Schrodinger Suite 2020-1.
 69 73  0  0  1  0            999 V2000
   -1.8126    1.6762    0.1970 C   0  0  0  0  0  0
   -0.4078    1.7122    0.2134 C   0  0  0  0  0  0
    0.2386    2.9577    0.1940 C   0  0  0  0  0  0
   -0.4952    4.1403    0.1555 C   0  0  0  0  0  0
   -1.8959    4.1240    0.1362 C   0  0  0  0  0  0
   -2.5345    2.8771    0.1562 C   0  0  0  0  0  0
   -2.6906    5.3907    0.0944 C   0  0  0  0  0  0
   -3.9402    5.4918    0.7288 C   0  0  0  0  0  0
   -2.7611    7.6159   -0.6775 C   0  0  0  0  0  0
   -2.1179    6.4255   -0.5837 N   0  0  0  0  0  0
   -4.0196    7.8150   -0.0855 C   0  0  0  0  0  0
   -4.5926    6.7257    0.6198 C   0  0  0  0  0  0
   -5.7991    7.2139    1.0804 N   0  0  0  0  0  0
   -5.8780    8.5167    0.6397 C   0  0  0  0  0  0
   -4.8426    8.9128   -0.0542 N   0  0  0  0  0  0
   -2.5527    0.3339    0.2129 C   0  0  0  0  0  0
   -2.2497   -0.3326    1.3275 F   0  0  0  0  0  0
   -3.8793    0.4740    0.1659 F   0  0  0  0  0  0
   -2.1814   -0.3997   -0.8373 F   0  0  0  0  0  0
    0.2685    0.5055    0.2581 O   0  0  0  0  0  0
    1.6796    0.4770    0.0646 C   0  0  0  0  0  0
    2.1303   -0.9937    0.0320 C   0  0  0  0  0  0
   -2.0555    8.6471   -1.4237 C   0  0  0  0  0  0
   -1.4946    9.4674   -2.0169 N   0  0  0  0  0  0
   -6.7932    6.5020    1.8648 C   0  0  0  0  0  0
    3.6543   -1.2006   -0.1430 C   0  0  2  0  0  0
    4.1607   -0.7708   -1.5377 C   0  0  0  0  0  0
    5.6883   -0.9205   -1.6505 C   0  0  0  0  0  0
    6.0693   -2.3977   -1.3818 N   0  3  2  0  0  0
    5.5611   -2.8831    0.0002 C   0  0  0  0  0  0
    4.0371   -2.6807    0.0640 C   0  0  0  0  0  0
    7.5998   -2.5723   -1.5352 C   0  0  0  0  0  0
    7.9736   -4.0432   -1.5267 C   0  0  0  0  0  0
    8.4379   -4.8279   -0.4594 C   0  0  0  0  0  0
    8.6671   -6.0718   -0.8165 N   0  0  0  0  0  0
    8.3666   -6.1500   -2.1722 O   0  0  0  0  0  0
    7.9570   -4.9293   -2.5905 C   0  0  0  0  0  0
    8.6877   -4.4271    0.9780 C   0  0  0  0  0  0
    7.5844   -4.8152   -4.0485 C   0  0  0  0  0  0
    1.3151    3.0315    0.2132 H   0  0  0  0  0  0
    0.0396    5.0792    0.1465 H   0  0  0  0  0  0
   -3.6136    2.8435    0.1294 H   0  0  0  0  0  0
   -4.3758    4.6686    1.2759 H   0  0  0  0  0  0
   -6.7467    9.1137    0.8774 H   0  0  0  0  0  0
    1.9314    0.9750   -0.8726 H   0  0  0  0  0  0
    2.1826    1.0011    0.8790 H   0  0  0  0  0  0
    1.8138   -1.4593    0.9672 H   0  0  0  0  0  0
    1.5931   -1.5202   -0.7590 H   0  0  0  0  0  0
   -7.6408    7.1528    2.0838 H   0  0  0  0  0  0
   -6.3432    6.1682    2.8004 H   0  0  0  0  0  0
   -7.1405    5.6337    1.3039 H   0  0  0  0  0  0
    4.1768   -0.6112    0.6137 H   0  0  0  0  0  0
    3.6567   -1.3415   -2.3197 H   0  0  0  0  0  0
    3.8899    0.2655   -1.7376 H   0  0  0  0  0  0
    6.0385   -0.6776   -2.6547 H   0  0  0  0  0  0
    6.2226   -0.3091   -0.9208 H   0  0  0  0  0  0
    5.8153   -3.9388    0.0913 H   0  0  0  0  0  0
    6.0941   -2.3111    0.7616 H   0  0  0  0  0  0
    3.6687   -3.0249    1.0315 H   0  0  0  0  0  0
    3.5287   -3.3151   -0.6645 H   0  0  0  0  0  0
    7.8592   -2.1015   -2.4849 H   0  0  0  0  0  0
    8.0679   -1.9863   -0.7426 H   0  0  0  0  0  0
    8.5033   -3.3679    1.1544 H   0  0  0  0  0  0
    9.7182   -4.6212    1.2777 H   0  0  0  0  0  0
    8.0448   -4.9774    1.6656 H   0  0  0  0  0  0
    7.2569   -3.8090   -4.3091 H   0  0  0  0  0  0
    6.7722   -5.4943   -4.3080 H   0  0  0  0  0  0
    8.4272   -5.0571   -4.6964 H   0  0  0  0  0  0
    5.6131   -2.9563   -2.0894 H   0  0  0  0  0  0
  1  6  2  0  0  0
  1  2  1  0  0  0
  1 16  1  0  0  0
  2 20  1  0  0  0
  2  3  2  0  0  0
  3  4  1  0  0  0
  3 40  1  0  0  0
  4  5  2  0  0  0
  4 41  1  0  0  0
  5  7  1  0  0  0
  5  6  1  0  0  0
  6 42  1  0  0  0
  7 10  1  0  0  0
  7  8  2  0  0  0
  8 12  1  0  0  0
  8 43  1  0  0  0
  9 11  1  0  0  0
  9 10  2  0  0  0
  9 23  1  0  0  0
 11 12  2  0  0  0
 11 15  1  0  0  0
 12 13  1  0  0  0
 13 25  1  0  0  0
 13 14  1  0  0  0
 14 15  2  0  0  0
 14 44  1  0  0  0
 16 19  1  0  0  0
 16 17  1  0  0  0
 16 18  1  0  0  0
 20 21  1  0  0  0
 21 22  1  0  0  0
 21 45  1  0  0  0
 21 46  1  0  0  0
 22 26  1  0  0  0
 22 47  1  0  0  0
 22 48  1  0  0  0
 23 24  3  0  0  0
 25 49  1  0  0  0
 25 50  1  0  0  0
 25 51  1  0  0  0
 26 27  1  0  0  0
 26 31  1  0  0  0
 26 52  1  0  0  0
 27 28  1  0  0  0
 27 53  1  0  0  0
 27 54  1  0  0  0
 28 29  1  0  0  0
 28 55  1  0  0  0
 28 56  1  0  0  0
 29 30  1  0  0  0
 29 32  1  0  0  0
 29 69  1  0  0  0
 30 31  1  0  0  0
 30 57  1  0  0  0
 30 58  1  0  0  0
 31 59  1  0  0  0
 31 60  1  0  0  0
 32 33  1  0  0  0
 32 61  1  0  0  0
 32 62  1  0  0  0
 33 34  1  0  0  0
 33 37  2  0  0  0
 34 35  2  0  0  0
 34 38  1  0  0  0
 35 36  1  0  0  0
 36 37  1  0  0  0
 37 39  1  0  0  0
 38 63  1  0  0  0
 38 64  1  0  0  0
 38 65  1  0  0  0
 39 66  1  0  0  0
 39 67  1  0  0  0
 39 68  1  0  0  0
M  CHG  1  29   1
M  END
> <chembl_id>
CHEMBL1669277

> <chembl_pref_name>
None

> <s_m_source_file>
sdf/inactives_sanitized.sdf

> <i_m_source_file_index>
83

> <i_lp_mmshare_version>
49012

> <i_m_ct_stereo_status>
1

> <i_f3d_flags>
0

> <s_epik_input>
bjFbY0hdbihbQ0gzXSljKGMxMilbY0hdYyhuYzJDI04pLWMoW2NIXTMpW2NIXVtjSF1jKGMzQyhGKShGKUYpT1tDSDJdW0NIMl1bQ0hdNFtDSDJdW0NIMl1OKFtDSDJdW0NIMl00KVtDSDJdYzVjKFtDSDNdKW5vYzVbQ0gzXQ==

> <s_epik_cmdline>
J2VwaWtfcHl0aG9uJywgJy1waHQnLCAnMC41JywgJy1waCcsICc3LjUnLCAnLW50JywgJy1tYScsICcyMDAnLCAnLWltYWUnLCAnPGluZmlsZS5tYWU+JywgJy1vbWFlJywgJzxvdXRmaWxlLm1hZT4n

> <r_lp_tautomer_probability>
1

> <r_epik_Ionization_Penalty>
  0.0344

> <r_epik_Ionization_Penalty_Charging>
  0.0344

> <r_epik_Ionization_Penalty_Neutral>
  0.0000

> <r_epik_State_Penalty>
  0.0286

> <r_epik_Charging_Adjusted_Penalty>
0.0629373995043276

> <i_epik_Tot_Q>
1

> <i_epik_Tot_abs_Q>
1

> <s_lp_Force_Field>
OPLS3e

> <r_lp_Energy>
42.238429

> <b_lp_Chiralities_Consistent>
1

> <s_lp_Variant>
sdf/inactives_sanitized.sdf:83-1

$$$$
sdf/inactives_sanitized.sdf:84
                    3D
 Schrodinger Suite 2020-1.
 34 35  0  0  1  0            999 V2000
   -1.9914    1.5747   -0.1426 N   0  0  1  0  0  0
   -2.5225    2.7548    0.2277 C   0  0  0  0  0  0
   -2.9943    3.7472    0.5916 N   0  0  0  0  0  0
   -2.6369    0.8981   -1.2704 C   0  0  0  0  0  0
   -2.2298   -0.5881   -1.3010 C   0  0  0  0  0  0
   -0.7061   -0.7680   -1.3045 C   0  0  0  0  0  0
   -0.0314    0.0221   -0.1619 C   0  0  2  0  0  0
   -0.5269    1.4909   -0.1293 C   0  0  0  0  0  0
    1.5137   -0.0380   -0.2109 C   0  0  0  0  0  0
    2.1071   -1.4484   -0.0178 C   0  0  0  0  0  0
    3.6283   -1.4449    0.0300 C   0  0  0  0  0  0
    4.3636   -1.5133   -1.1568 C   0  0  0  0  0  0
    5.7555   -1.5125   -1.1130 C   0  0  0  0  0  0
    6.4072   -1.4427    0.1167 C   0  0  0  0  0  0
    5.6800   -1.3716    1.3031 C   0  0  0  0  0  0
    4.2882   -1.3715    1.2600 C   0  0  0  0  0  0
   -3.7212    1.0041   -1.2135 H   0  0  0  0  0  0
   -2.2787    1.4031   -2.1690 H   0  0  0  0  0  0
   -2.6514   -1.0957   -0.4318 H   0  0  0  0  0  0
   -2.6687   -1.0744   -2.1727 H   0  0  0  0  0  0
   -0.4375   -1.8239   -1.2707 H   0  0  0  0  0  0
   -0.3201   -0.4057   -2.2587 H   0  0  0  0  0  0
   -0.3415   -0.4175    0.7884 H   0  0  0  0  0  0
   -0.1582    1.9658    0.7815 H   0  0  0  0  0  0
   -0.0951    2.0696   -0.9474 H   0  0  0  0  0  0
    1.8653    0.3808   -1.1554 H   0  0  0  0  0  0
    1.9138    0.6134    0.5684 H   0  0  0  0  0  0
    1.7209   -1.8969    0.8991 H   0  0  0  0  0  0
    1.7893   -2.1143   -0.8208 H   0  0  0  0  0  0
    3.8589   -1.5665   -2.1107 H   0  0  0  0  0  0
    6.3274   -1.5663   -2.0277 H   0  0  0  0  0  0
    7.4867   -1.4433    0.1508 H   0  0  0  0  0  0
    6.1932   -1.3170    2.2518 H   0  0  0  0  0  0
    3.7256   -1.3149    2.1806 H   0  0  0  0  0  0
  1  4  1  0  0  0
  1  2  1  0  0  0
  1  8  1  0  0  0
  2  3  3  0  0  0
  4  5  1  0  0  0
  4 17  1  0  0  0
  4 18  1  0  0  0
  5  6  1  0  0  0
  5 19  1  0  0  0
  5 20  1  0  0  0
  6  7  1  0  0  0
  6 21  1  0  0  0
  6 22  1  0  0  0
  7  8  1  0  0  0
  7  9  1  0  0  0
  7 23  1  0  0  0
  8 24  1  0  0  0
  8 25  1  0  0  0
  9 10  1  0  0  0
  9 26  1  0  0  0
  9 27  1  0  0  0
 10 11  1  0  0  0
 10 28  1  0  0  0
 10 29  1  0  0  0
 11 12  2  0  0  0
 11 16  1  0  0  0
 12 13  1  0  0  0
 12 30  1  0  0  0
 13 14  2  0  0  0
 13 31  1  0  0  0
 14 15  1  0  0  0
 14 32  1  0  0  0
 15 16  2  0  0  0
 15 33  1  0  0  0
 16 34  1  0  0  0
M  END
> <chembl_id>
CHEMBL1672420

> <chembl_pref_name>
None

> <s_m_source_file>
sdf/inactives_sanitized.sdf

> <i_m_source_file_index>
84

> <i_lp_mmshare_version>
49012

> <i_m_ct_stereo_status>
1

> <i_f3d_flags>
0

> <s_epik_input>
TiNDTjFbQ0gyXVtDSDJdW0NIMl1bQ0BIXShbQ0gyXTEpW0NIMl1bQ0gyXWMyW2NIXVtjSF1bY0hdW2NIXVtjSF0y

> <s_epik_cmdline>
J2VwaWtfcHl0aG9uJywgJy1waHQnLCAnMC41JywgJy1waCcsICc3LjUnLCAnLW50JywgJy1tYScsICcyMDAnLCAnLWltYWUnLCAnPGluZmlsZS5tYWU+JywgJy1vbWFlJywgJzxvdXRmaWxlLm1hZT4n

> <r_lp_tautomer_probability>
1

> <r_epik_Ionization_Penalty>
  0.0000

> <r_epik_Ionization_Penalty_Charging>
  0.0000

> <r_epik_Ionization_Penalty_Neutral>
  0.0000

> <r_epik_State_Penalty>
 -0.0000

> <r_epik_Charging_Adjusted_Penalty>
0

> <i_epik_Tot_Q>
0

> <i_epik_Tot_abs_Q>
0

> <s_lp_Force_Field>
OPLS3e

> <r_lp_Energy>
20.348827

> <b_lp_Chiralities_Consistent>
1

> <s_lp_Variant>
sdf/inactives_sanitized.sdf:84-1

$$$$
sdf/inactives_sanitized.sdf:85
                    3D
 Schrodinger Suite 2020-1.
 44 45  0  0  1  0            999 V2000
   -1.3370   -2.0227    0.6806 C   0  0  0  0  0  0
   -0.1959   -1.2594    1.3531 C   0  0  0  0  0  0
   -0.0638    0.0229    0.5480 C   0  0  2  0  0  0
   -0.4290   -0.3795   -0.8818 C   0  0  0  0  0  0
   -1.3088   -1.5344   -0.7038 N   0  0  0  0  0  0
    1.2397    0.7026    0.6939 N   0  0  2  0  0  0
    1.3940    2.3962    0.2248 S   0  0  0  0  0  0
    1.1568    2.4146   -1.5488 C   0  0  0  0  0  0
    2.0185    1.6737   -2.3624 C   0  0  0  0  0  0
    1.8286    1.6517   -3.7445 C   0  0  0  0  0  0
    0.7819    2.3760   -4.3171 C   0  0  0  0  0  0
   -0.0748    3.1224   -3.5074 C   0  0  0  0  0  0
    0.1109    3.1434   -2.1247 C   0  0  0  0  0  0
    0.2876    3.1421    0.8359 O   0  0  0  0  0  0
    2.7872    2.7899    0.4611 O   0  0  0  0  0  0
    2.9930    0.6275   -4.8475 Br  0  0  0  0  0  0
   -2.0367   -2.0812   -1.7643 C   0  0  0  0  0  0
   -2.0088   -1.6627   -2.9235 O   0  0  0  0  0  0
   -2.7905   -3.1461   -1.3463 O   0  0  0  0  0  0
   -3.6641   -3.9314   -2.1784 C   0  0  0  0  0  0
   -2.8807   -4.6421   -3.3098 C   0  0  0  0  0  0
   -4.8146   -3.0700   -2.7553 C   0  0  0  0  0  0
   -4.2499   -4.9906   -1.2223 C   0  0  0  0  0  0
   -1.1881   -3.1019    0.7380 H   0  0  0  0  0  0
   -2.2983   -1.7752    1.1330 H   0  0  0  0  0  0
   -0.3906   -1.0870    2.4121 H   0  0  0  0  0  0
    0.7213   -1.8466    1.2765 H   0  0  0  0  0  0
   -0.7724    0.7572    0.9345 H   0  0  0  0  0  0
   -0.9477    0.4286   -1.3992 H   0  0  0  0  0  0
    0.4508   -0.6579   -1.4638 H   0  0  0  0  0  0
    2.0573    0.1216    0.4904 H   0  0  0  0  0  0
    2.8271    1.1078   -1.9227 H   0  0  0  0  0  0
    0.6328    2.3587   -5.3867 H   0  0  0  0  0  0
   -0.8853    3.6819   -3.9511 H   0  0  0  0  0  0
   -0.5640    3.7200   -1.5093 H   0  0  0  0  0  0
   -3.5136   -5.3493   -3.8473 H   0  0  0  0  0  0
   -2.0314   -5.1994   -2.9127 H   0  0  0  0  0  0
   -2.4889   -3.9406   -4.0459 H   0  0  0  0  0  0
   -4.4572   -2.3263   -3.4671 H   0  0  0  0  0  0
   -5.3402   -2.5325   -1.9653 H   0  0  0  0  0  0
   -5.5489   -3.6854   -3.2765 H   0  0  0  0  0  0
   -4.9428   -5.6573   -1.7373 H   0  0  0  0  0  0
   -4.7929   -4.5275   -0.3971 H   0  0  0  0  0  0
   -3.4661   -5.6091   -0.7823 H   0  0  0  0  0  0
  1  2  1  0  0  0
  1  5  1  0  0  0
  1 24  1  0  0  0
  1 25  1  0  0  0
  2  3  1  0  0  0
  2 26  1  0  0  0
  2 27  1  0  0  0
  3  6  1  0  0  0
  3  4  1  0  0  0
  3 28  1  0  0  0
  4  5  1  0  0  0
  4 29  1  0  0  0
  4 30  1  0  0  0
  5 17  1  0  0  0
  6  7  1  0  0  0
  6 31  1  0  0  0
  7 14  2  0  0  0
  7 15  2  0  0  0
  7  8  1  0  0  0
  8 13  1  0  0  0
  8  9  2  0  0  0
  9 10  1  0  0  0
  9 32  1  0  0  0
 10 16  1  0  0  0
 10 11  2  0  0  0
 11 12  1  0  0  0
 11 33  1  0  0  0
 12 13  2  0  0  0
 12 34  1  0  0  0
 13 35  1  0  0  0
 17 18  2  0  0  0
 17 19  1  0  0  0
 19 20  1  0  0  0
 20 21  1  0  0  0
 20 22  1  0  0  0
 20 23  1  0  0  0
 21 36  1  0  0  0
 21 37  1  0  0  0
 21 38  1  0  0  0
 22 39  1  0  0  0
 22 40  1  0  0  0
 22 41  1  0  0  0
 23 42  1  0  0  0
 23 43  1  0  0  0
 23 44  1  0  0  0
M  END
> <chembl_id>
CHEMBL1672429

> <chembl_pref_name>
None

> <i_m_ct_stereo_status>
1

> <s_m_source_file>
sdf/inactives_sanitized.sdf

> <i_m_source_file_index>
85

> <i_lp_mmshare_version>
49012

> <i_f3d_flags>
0

> <s_epik_input>
W0NIM11DKFtDSDNdKShbQ0gzXSlPQyg9TylOKFtDSDJdMSlbQ0gyXVtDSDJdW0NASF0xW05IXVMoPU8pKD1PKWMyW2NIXWMoQnIpW2NIXVtjSF1bY0hdMg==

> <s_epik_cmdline>
J2VwaWtfcHl0aG9uJywgJy1waHQnLCAnMC41JywgJy1waCcsICc3LjUnLCAnLW50JywgJy1tYScsICcyMDAnLCAnLWltYWUnLCAnPGluZmlsZS5tYWU+JywgJy1vbWFlJywgJzxvdXRmaWxlLm1hZT4n

> <r_lp_tautomer_probability>
1

> <r_epik_Ionization_Penalty>
  0.0009

> <r_epik_Ionization_Penalty_Charging>
  0.0000

> <r_epik_Ionization_Penalty_Neutral>
  0.0009

> <r_epik_State_Penalty>
 -0.0000

> <r_epik_Charging_Adjusted_Penalty>
0

> <i_epik_Tot_Q>
0

> <i_epik_Tot_abs_Q>
0

> <s_epik_Chemistry_Notes>
This compound has an ester and may undergo hydrolysis at high or low pH.

> <s_lp_Force_Field>
OPLS3e

> <r_lp_Energy>
0.362154

> <b_lp_Chiralities_Consistent>
1

> <s_lp_Variant>
sdf/inactives_sanitized.sdf:85-1

$$$$
sdf/inactives_sanitized.sdf:86
                    3D
 Schrodinger Suite 2020-1.
 41 42  0  0  1  0            999 V2000
    0.4741    4.6989   -1.2188 C   0  0  2  0  0  0
    1.0079    3.2750   -1.0143 C   0  0  0  0  0  0
   -0.1822    2.3579   -1.3087 C   0  0  2  0  0  0
   -1.3312    3.3119   -1.6422 C   0  0  0  0  0  0
   -0.6202    4.4720   -2.1582 N   0  0  1  0  0  0
   -0.4959    1.3958   -0.2342 N   0  0  1  0  0  0
    0.0598   -0.2724   -0.3422 S   0  0  0  0  0  0
    1.8501   -0.1666   -0.2221 C   0  0  0  0  0  0
    2.4517    0.4370    0.8933 C   0  0  0  0  0  0
    3.8533    0.5157    0.9395 C   0  0  0  0  0  0
    4.6301    0.0121   -0.1014 C   0  0  0  0  0  0
    4.0371   -0.5818   -1.2147 C   0  0  0  0  0  0
    2.6371   -0.6665   -1.2653 C   0  0  0  0  0  0
   -0.4047   -0.9622    0.8661 O   0  0  0  0  0  0
   -0.2807   -0.7779   -1.6775 O   0  0  0  0  0  0
    1.5287    5.7005   -1.7232 C   0  0  0  0  0  0
   -1.3543    5.5156   -2.5886 C   0  0  0  0  0  0
   -1.9402    6.4385   -2.9683 N   0  0  0  0  0  0
    4.8877   -1.0473   -2.1988 O   0  0  0  0  0  0
    4.3363   -1.6515   -3.3639 C   0  0  0  0  0  0
    1.6258    0.9275    1.8889 O   0  0  0  0  0  0
    2.1957    1.5957    3.0089 C   0  0  0  0  0  0
    0.0557    5.0736   -0.2819 H   0  0  0  0  0  0
    1.8204    3.0517   -1.7085 H   0  0  0  0  0  0
    1.4043    3.1531   -0.0048 H   0  0  0  0  0  0
    0.0575    1.7433   -2.1779 H   0  0  0  0  0  0
   -2.0104    2.8841   -2.3807 H   0  0  0  0  0  0
   -1.9106    3.5828   -0.7571 H   0  0  0  0  0  0
   -0.6460    1.7809    0.7021 H   0  0  0  0  0  0
    4.3621    0.9667    1.7776 H   0  0  0  0  0  0
    5.7063    0.0862   -0.0426 H   0  0  0  0  0  0
    2.1520   -1.1217   -2.1147 H   0  0  0  0  0  0
    2.3477    5.7960   -1.0098 H   0  0  0  0  0  0
    1.0987    6.6934   -1.8596 H   0  0  0  0  0  0
    1.9534    5.3896   -2.6788 H   0  0  0  0  0  0
    5.1446   -1.9508   -4.0310 H   0  0  0  0  0  0
    3.6978   -0.9563   -3.9112 H   0  0  0  0  0  0
    3.7633   -2.5467   -3.1176 H   0  0  0  0  0  0
    1.3974    1.9300    3.6712 H   0  0  0  0  0  0
    2.7617    2.4773    2.7039 H   0  0  0  0  0  0
    2.8442    0.9322    3.5830 H   0  0  0  0  0  0
  1  2  1  0  0  0
  1 16  1  0  0  0
  1  5  1  0  0  0
  1 23  1  0  0  0
  2  3  1  0  0  0
  2 24  1  0  0  0
  2 25  1  0  0  0
  3  6  1  0  0  0
  3  4  1  0  0  0
  3 26  1  0  0  0
  4  5  1  0  0  0
  4 27  1  0  0  0
  4 28  1  0  0  0
  5 17  1  0  0  0
  6  7  1  0  0  0
  6 29  1  0  0  0
  7 14  2  0  0  0
  7 15  2  0  0  0
  7  8  1  0  0  0
  8 13  1  0  0  0
  8  9  2  0  0  0
  9 10  1  0  0  0
  9 21  1  0  0  0
 10 11  2  0  0  0
 10 30  1  0  0  0
 11 12  1  0  0  0
 11 31  1  0  0  0
 12 13  2  0  0  0
 12 19  1  0  0  0
 13 32  1  0  0  0
 16 33  1  0  0  0
 16 34  1  0  0  0
 16 35  1  0  0  0
 17 18  3  0  0  0
 19 20  1  0  0  0
 20 36  1  0  0  0
 20 37  1  0  0  0
 20 38  1  0  0  0
 21 22  1  0  0  0
 22 39  1  0  0  0
 22 40  1  0  0  0
 22 41  1  0  0  0
M  END
> <chembl_id>
CHEMBL1672431

> <chembl_pref_name>
None

> <i_m_ct_stereo_status>
1

> <s_m_source_file>
sdf/inactives_sanitized.sdf

> <i_m_source_file_index>
86

> <i_lp_mmshare_version>
49012

> <i_f3d_flags>
0

> <s_epik_input>
TiNDTjFbQ0gyXVtDQEBIXShbQ0gyXVtDQEhdMVtDSDNdKVtOSF1TKD1PKSg9TyljMmMoT1tDSDNdKVtjSF1bY0hdYyhbY0hdMilPW0NIM10=

> <s_epik_cmdline>
J2VwaWtfcHl0aG9uJywgJy1waHQnLCAnMC41JywgJy1waCcsICc3LjUnLCAnLW50JywgJy1tYScsICcyMDAnLCAnLWltYWUnLCAnPGluZmlsZS5tYWU+JywgJy1vbWFlJywgJzxvdXRmaWxlLm1hZT4n

> <r_lp_tautomer_probability>
1

> <r_epik_Ionization_Penalty>
  0.0001

> <r_epik_Ionization_Penalty_Charging>
  0.0000

> <r_epik_Ionization_Penalty_Neutral>
  0.0001

> <r_epik_State_Penalty>
 -0.0000

> <r_epik_Charging_Adjusted_Penalty>
0

> <i_epik_Tot_Q>
0

> <i_epik_Tot_abs_Q>
0

> <s_lp_Force_Field>
OPLS3e

> <r_lp_Energy>
16.457628

> <b_lp_Chiralities_Consistent>
1

> <s_lp_Variant>
sdf/inactives_sanitized.sdf:86-1

$$$$
sdf/inactives_sanitized.sdf:87
                    3D
 Schrodinger Suite 2020-1.
 33 34  0  0  1  0            999 V2000
   -1.4120   -1.8682    0.4962 C   0  0  1  0  0  0
   -0.9142   -0.4527    0.8349 C   0  0  0  0  0  0
   -0.2765    0.0830   -0.4518 C   0  0  2  0  0  0
   -0.6691   -0.9617   -1.4990 C   0  0  0  0  0  0
   -0.6545   -2.1850   -0.7111 N   0  0  2  0  0  0
    1.1864    0.2774   -0.3457 N   0  0  1  0  0  0
    1.8580    1.8899   -0.1323 S   0  0  0  0  0  0
    1.3294    2.3788    1.5058 C   0  0  0  0  0  0
    1.7983    1.6722    2.6171 C   0  0  0  0  0  0
    1.3836    2.0310    3.8999 C   0  0  0  0  0  0
    0.4993    3.0958    4.0756 C   0  0  0  0  0  0
    0.0295    3.8032    2.9680 C   0  0  0  0  0  0
    0.4439    3.4467    1.6838 C   0  0  0  0  0  0
    3.3177    1.7546   -0.0805 O   0  0  0  0  0  0
    1.2174    2.7862   -1.1021 O   0  0  0  0  0  0
   -1.1798    5.2532    3.2080 Br  0  0  0  0  0  0
   -1.2272   -2.8959    1.6273 C   0  0  0  0  0  0
   -0.8764   -3.3500   -1.3488 C   0  0  0  0  0  0
   -1.0893   -4.3692   -1.8541 N   0  0  0  0  0  0
   -2.4716   -1.8279    0.2343 H   0  0  0  0  0  0
   -1.7474    0.1755    1.1524 H   0  0  0  0  0  0
   -0.1975   -0.4648    1.6585 H   0  0  0  0  0  0
   -0.6888    1.0570   -0.7182 H   0  0  0  0  0  0
    0.0340   -0.9983   -2.3326 H   0  0  0  0  0  0
   -1.6661   -0.7735   -1.9018 H   0  0  0  0  0  0
    1.7432   -0.5198   -0.0255 H   0  0  0  0  0  0
    2.4805    0.8446    2.4874 H   0  0  0  0  0  0
    1.7467    1.4839    4.7574 H   0  0  0  0  0  0
    0.1788    3.3707    5.0698 H   0  0  0  0  0  0
    0.0712    3.9997    0.8339 H   0  0  0  0  0  0
   -1.7712   -2.5925    2.5222 H   0  0  0  0  0  0
   -0.1766   -3.0095    1.8981 H   0  0  0  0  0  0
   -1.6023   -3.8776    1.3353 H   0  0  0  0  0  0
  1  5  1  0  0  0
  1  2  1  0  0  0
  1 17  1  0  0  0
  1 20  1  0  0  0
  2  3  1  0  0  0
  2 21  1  0  0  0
  2 22  1  0  0  0
  3  6  1  0  0  0
  3  4  1  0  0  0
  3 23  1  0  0  0
  4  5  1  0  0  0
  4 24  1  0  0  0
  4 25  1  0  0  0
  5 18  1  0  0  0
  6  7  1  0  0  0
  6 26  1  0  0  0
  7 14  2  0  0  0
  7 15  2  0  0  0
  7  8  1  0  0  0
  8 13  2  0  0  0
  8  9  1  0  0  0
  9 10  2  0  0  0
  9 27  1  0  0  0
 10 11  1  0  0  0
 10 28  1  0  0  0
 11 12  2  0  0  0
 11 29  1  0  0  0
 12 13  1  0  0  0
 12 16  1  0  0  0
 13 30  1  0  0  0
 17 31  1  0  0  0
 17 32  1  0  0  0
 17 33  1  0  0  0
 18 19  3  0  0  0
M  END
> <chembl_id>
CHEMBL1672432

> <chembl_pref_name>
None

> <i_m_ct_stereo_status>
1

> <s_m_source_file>
sdf/inactives_sanitized.sdf

> <i_m_source_file_index>
87

> <i_lp_mmshare_version>
49012

> <i_f3d_flags>
0

> <s_epik_input>
TiNDTjFbQ0gyXVtDQEBIXShbQ0gyXVtDQEBIXTFbQ0gzXSlbTkhdUyg9TykoPU8pYzJbY0hdW2NIXVtjSF1jKEJyKVtjSF0y

> <s_epik_cmdline>
J2VwaWtfcHl0aG9uJywgJy1waHQnLCAnMC41JywgJy1waCcsICc3LjUnLCAnLW50JywgJy1tYScsICcyMDAnLCAnLWltYWUnLCAnPGluZmlsZS5tYWU+JywgJy1vbWFlJywgJzxvdXRmaWxlLm1hZT4n

> <r_lp_tautomer_probability>
1

> <r_epik_Ionization_Penalty>
  0.0005

> <r_epik_Ionization_Penalty_Charging>
  0.0000

> <r_epik_Ionization_Penalty_Neutral>
  0.0005

> <r_epik_State_Penalty>
 -0.0000

> <r_epik_Charging_Adjusted_Penalty>
0

> <i_epik_Tot_Q>
0

> <i_epik_Tot_abs_Q>
0

> <s_lp_Force_Field>
OPLS3e

> <r_lp_Energy>
12.037702

> <b_lp_Chiralities_Consistent>
1

> <s_lp_Variant>
sdf/inactives_sanitized.sdf:87-1

$$$$
sdf/inactives_sanitized.sdf:88
                    3D
 Schrodinger Suite 2020-1.
 44 46  0  0  1  0            999 V2000
   -6.3684    1.2109   -0.6496 C   0  0  0  0  0  0
   -7.1074    0.1498   -0.1345 C   0  0  0  0  0  0
   -6.4661   -0.9576    0.4133 C   0  0  0  0  0  0
   -5.0748   -1.0028    0.4450 C   0  0  0  0  0  0
   -4.3137    0.0562   -0.0685 C   0  0  0  0  0  0
   -4.9773    1.1627   -0.6156 C   0  0  0  0  0  0
   -2.8242    0.0072   -0.0327 C   0  0  0  0  0  0
   -2.0804    1.1397    0.3090 C   0  0  0  0  0  0
   -0.6900    1.0934    0.3418 C   0  0  0  0  0  0
    0.0075   -0.0899    0.0467 C   0  0  0  0  0  0
   -0.7485   -1.2168   -0.3134 C   0  0  0  0  0  0
   -2.1396   -1.1704   -0.3465 C   0  0  0  0  0  0
    1.4948   -0.1155    0.0725 C   0  0  0  0  0  0
    2.1338    0.9740   -0.1653 N   0  0  0  0  0  0
    2.1621   -1.4861    0.3890 C   0  0  0  0  0  0
    3.1636   -1.4831    1.5451 C   0  0  0  0  0  0
    4.4977   -1.8343    1.3156 C   0  0  0  0  0  0
    5.4110   -1.8272    2.3665 C   0  0  0  0  0  0
    4.9871   -1.4769    3.6466 C   0  0  0  0  0  0
    3.6577   -1.1365    3.8862 C   0  0  0  0  0  0
    2.7445   -1.1419    2.8354 C   0  0  0  0  0  0
    3.4846    0.9077   -0.2237 N   0  0  0  0  0  0
    4.3160    1.9722   -0.4189 C   0  0  0  0  0  0
    5.6259    1.6438   -0.4214 N   0  0  0  0  0  0
    3.8777    3.5681   -0.6399 S   0  0  0  0  0  0
   -6.8711    2.0673   -1.0742 H   0  0  0  0  0  0
   -8.1867    0.1864   -0.1600 H   0  0  0  0  0  0
   -7.0450   -1.7772    0.8131 H   0  0  0  0  0  0
   -4.5891   -1.8652    0.8784 H   0  0  0  0  0  0
   -4.4151    1.9902   -1.0238 H   0  0  0  0  0  0
   -2.5778    2.0659    0.5577 H   0  0  0  0  0  0
   -0.1598    1.9950    0.6154 H   0  0  0  0  0  0
   -0.2762   -2.1448   -0.5987 H   0  0  0  0  0  0
   -2.6851   -2.0579   -0.6333 H   0  0  0  0  0  0
    1.4282   -2.2386    0.6728 H   0  0  0  0  0  0
    2.6336   -1.8717   -0.5163 H   0  0  0  0  0  0
    4.8311   -2.1046    0.3243 H   0  0  0  0  0  0
    6.4430   -2.0920    2.1898 H   0  0  0  0  0  0
    5.6957   -1.4708    4.4618 H   0  0  0  0  0  0
    3.3369   -0.8686    4.8822 H   0  0  0  0  0  0
    1.7138   -0.8766    3.0223 H   0  0  0  0  0  0
    3.8748   -0.0118   -0.0759 H   0  0  0  0  0  0
    5.9062    0.6847   -0.2773 H   0  0  0  0  0  0
    6.3199    2.3647   -0.5577 H   0  0  0  0  0  0
  1  2  2  0  0  0
  1  6  1  0  0  0
  1 26  1  0  0  0
  2  3  1  0  0  0
  2 27  1  0  0  0
  3  4  2  0  0  0
  3 28  1  0  0  0
  4  5  1  0  0  0
  4 29  1  0  0  0
  5  6  2  0  0  0
  5  7  1  0  0  0
  6 30  1  0  0  0
  7  8  2  0  0  0
  7 12  1  0  0  0
  8  9  1  0  0  0
  8 31  1  0  0  0
  9 10  2  0  0  0
  9 32  1  0  0  0
 10 11  1  0  0  0
 10 13  1  0  0  0
 11 12  2  0  0  0
 11 33  1  0  0  0
 12 34  1  0  0  0
 13 14  2  0  0  0
 13 15  1  0  0  0
 14 22  1  0  0  0
 15 16  1  0  0  0
 15 35  1  0  0  0
 15 36  1  0  0  0
 16 17  2  0  0  0
 16 21  1  0  0  0
 17 18  1  0  0  0
 17 37  1  0  0  0
 18 19  2  0  0  0
 18 38  1  0  0  0
 19 20  1  0  0  0
 19 39  1  0  0  0
 20 21  2  0  0  0
 20 40  1  0  0  0
 21 41  1  0  0  0
 22 23  1  0  0  0
 22 42  1  0  0  0
 23 24  1  0  0  0
 23 25  2  0  0  0
 24 43  1  0  0  0
 24 44  1  0  0  0
M  END
> <chembl_id>
CHEMBL2316592

> <chembl_pref_name>
None

> <s_m_source_file>
sdf/inactives_sanitized.sdf

> <i_m_source_file_index>
88

> <i_lp_mmshare_version>
49012

> <i_m_ct_stereo_status>
1

> <i_f3d_flags>
0

> <s_epik_input>
W2NIXTFbY0hdW2NIXVtjSF1bY0hdYzEtYzJbY0hdW2NIXWMoW2NIXVtjSF0yKS9DKD1OL1tOSF1DKD1TKVtOSDJdKVtDSDJdYzNbY0hdW2NIXVtjSF1bY0hdW2NIXTM=

> <s_epik_cmdline>
J2VwaWtfcHl0aG9uJywgJy1waHQnLCAnMC41JywgJy1waCcsICc3LjUnLCAnLW50JywgJy1tYScsICcyMDAnLCAnLWltYWUnLCAnPGluZmlsZS5tYWU+JywgJy1vbWFlJywgJzxvdXRmaWxlLm1hZT4n

> <r_lp_tautomer_probability>
1

> <r_epik_Ionization_Penalty>
  0.0001

> <r_epik_Ionization_Penalty_Charging>
  0.0000

> <r_epik_Ionization_Penalty_Neutral>
  0.0001

> <r_epik_State_Penalty>
 -0.0000

> <r_epik_Charging_Adjusted_Penalty>
0

> <i_epik_Tot_Q>
0

> <i_epik_Tot_abs_Q>
0

> <s_epik_Chemistry_Notes>
This compound has an imine and may undergo hydrolysis.

> <s_lp_Force_Field>
OPLS3e

> <r_lp_Energy>
54.38356

> <b_lp_Chiralities_Consistent>
1

> <s_lp_Variant>
sdf/inactives_sanitized.sdf:88-1

$$$$
sdf/inactives_sanitized.sdf:89
                    3D
 Schrodinger Suite 2020-1.
 33 34  0  0  1  0            999 V2000
   -2.5554    2.1863   -0.7882 N   0  0  0  0  0  0
   -1.8372    0.9874   -0.6719 C   0  0  0  0  0  0
   -0.5157    1.1269   -0.3870 N   0  0  0  0  0  0
    0.1873   -0.0341   -0.2475 C   0  0  0  0  0  0
   -0.3472   -1.2769   -0.3720 N   0  0  0  0  0  0
   -1.6760   -1.2945   -0.6497 C   0  0  0  0  0  0
   -2.4739   -0.2081   -0.8078 N   0  0  0  0  0  0
   -3.8706    2.4692   -1.1968 C   0  0  0  0  0  0
   -4.4431    3.6633   -0.7505 C   0  0  0  0  0  0
   -5.7388    4.0062   -1.1286 C   0  0  0  0  0  0
   -6.4608    3.1574   -1.9637 C   0  0  0  0  0  0
   -5.8957    1.9723   -2.4277 C   0  0  0  0  0  0
   -4.6002    1.6293   -2.0489 C   0  0  0  0  0  0
   -2.3034   -2.5978   -0.7911 C   0  0  0  0  0  0
   -2.8033   -3.6358   -0.9038 N   0  0  0  0  0  0
    1.5603    0.0065    0.0414 N   0  0  0  0  0  0
    2.3035    1.2520    0.2262 C   0  0  0  0  0  0
    3.8061    1.0322   -0.0107 C   0  0  0  0  0  0
    2.0477    1.8780    1.6103 C   0  0  0  0  0  0
   -2.0012    3.0066   -0.5914 H   0  0  0  0  0  0
   -3.8898    4.3288   -0.1033 H   0  0  0  0  0  0
   -6.1809    4.9267   -0.7769 H   0  0  0  0  0  0
   -7.4653    3.4231   -2.2587 H   0  0  0  0  0  0
   -6.4579    1.3237   -3.0832 H   0  0  0  0  0  0
   -4.1760    0.7169   -2.4388 H   0  0  0  0  0  0
    2.0624   -0.8653    0.1260 H   0  0  0  0  0  0
    1.9607    1.9617   -0.5290 H   0  0  0  0  0  0
    4.3610    1.9663    0.0835 H   0  0  0  0  0  0
    3.9952    0.6442   -1.0125 H   0  0  0  0  0  0
    4.2265    0.3226    0.7036 H   0  0  0  0  0  0
    2.5834    2.8216    1.7192 H   0  0  0  0  0  0
    2.3731    1.2170    2.4146 H   0  0  0  0  0  0
    0.9896    2.0903    1.7673 H   0  0  0  0  0  0
  1  2  1  0  0  0
  1  8  1  0  0  0
  1 20  1  0  0  0
  2  3  2  0  0  0
  2  7  1  0  0  0
  3  4  1  0  0  0
  4  5  2  0  0  0
  4 16  1  0  0  0
  5  6  1  0  0  0
  6  7  2  0  0  0
  6 14  1  0  0  0
  8 13  2  0  0  0
  8  9  1  0  0  0
  9 10  2  0  0  0
  9 21  1  0  0  0
 10 11  1  0  0  0
 10 22  1  0  0  0
 11 12  2  0  0  0
 11 23  1  0  0  0
 12 13  1  0  0  0
 12 24  1  0  0  0
 13 25  1  0  0  0
 14 15  3  0  0  0
 16 17  1  0  0  0
 16 26  1  0  0  0
 17 18  1  0  0  0
 17 19  1  0  0  0
 17 27  1  0  0  0
 18 28  1  0  0  0
 18 29  1  0  0  0
 18 30  1  0  0  0
 19 31  1  0  0  0
 19 32  1  0  0  0
 19 33  1  0  0  0
M  END
> <chembl_id>
CHEMBL566691

> <chembl_pref_name>
None

> <s_m_source_file>
sdf/inactives_sanitized.sdf

> <i_m_source_file_index>
89

> <i_lp_mmshare_version>
49012

> <i_m_ct_stereo_status>
1

> <i_f3d_flags>
0

> <s_epik_input>
W2NIXTFbY0hdW2NIXVtjSF1bY0hdYzFbTkhdYzJuYyhuYyhuMilDI04pW05IXVtDSF0oW0NIM10pW0NIM10=

> <s_epik_cmdline>
J2VwaWtfcHl0aG9uJywgJy1waHQnLCAnMC41JywgJy1waCcsICc3LjUnLCAnLW50JywgJy1tYScsICcyMDAnLCAnLWltYWUnLCAnPGluZmlsZS5tYWU+JywgJy1vbWFlJywgJzxvdXRmaWxlLm1hZT4n

> <r_lp_tautomer_probability>
1

> <r_epik_Ionization_Penalty>
  0.0001

> <r_epik_Ionization_Penalty_Charging>
  0.0000

> <r_epik_Ionization_Penalty_Neutral>
  0.0001

> <r_epik_State_Penalty>
 -0.0000

> <r_epik_Charging_Adjusted_Penalty>
0

> <i_epik_Tot_Q>
0

> <i_epik_Tot_abs_Q>
0

> <s_lp_Force_Field>
OPLS3e

> <r_lp_Energy>
14.02799

> <b_lp_Chiralities_Consistent>
1

> <s_lp_Variant>
sdf/inactives_sanitized.sdf:89-1

$$$$
sdf/inactives_sanitized.sdf:90
                    3D
 Schrodinger Suite 2020-1.
 50 52  0  0  1  0            999 V2000
   -0.3032   -3.3644   -2.8768 N   0  0  2  0  0  0
   -1.3570   -2.3879   -2.5597 C   0  0  1  0  0  0
   -2.7929   -2.9864   -2.5966 C   0  0  0  0  0  0
   -2.9254   -4.4068   -2.0005 C   0  0  2  0  0  0
   -1.7482   -5.3186   -2.3895 C   0  0  0  0  0  0
   -0.3739   -4.6544   -2.1907 C   0  0  0  0  0  0
   -1.0445   -1.7491   -1.1818 C   0  0  0  0  0  0
   -1.2073   -2.3899   -0.1413 O   0  0  0  0  0  0
   -0.5554   -0.4938   -1.1889 N   0  0  0  0  0  0
   -4.1555   -4.9951   -2.3722 O   0  0  0  0  0  0
   -0.0619    0.2236   -0.0076 C   0  0  1  0  0  0
    1.4763    0.1453    0.1468 C   0  0  0  0  0  0
    2.8759   -3.9467    0.0557 C   0  0  0  0  0  0
    3.0938   -3.0955   -1.0351 C   0  0  0  0  0  0
    2.6694   -1.7708   -0.9984 C   0  0  0  0  0  0
    2.0203   -1.2787    0.1346 C   0  0  0  0  0  0
    1.8167   -2.1093    1.2363 C   0  0  0  0  0  0
    2.2392   -3.4349    1.1935 C   0  0  0  0  0  0
    3.3038   -5.3742    0.0019 C   0  0  0  0  0  0
    3.8739   -5.9920    1.1224 C   0  0  0  0  0  0
    4.2667   -7.3271    1.0766 C   0  0  0  0  0  0
    4.0926   -8.0608   -0.0973 C   0  0  0  0  0  0
    3.5288   -7.4593   -1.2226 C   0  0  0  0  0  0
    3.1379   -6.1242   -1.1697 C   0  0  0  0  0  0
    4.5003   -9.4570   -0.1482 C   0  0  0  0  0  0
    4.8242  -10.5672   -0.1886 N   0  0  0  0  0  0
   -0.5413    1.6152   -0.0324 C   0  0  0  0  0  0
   -0.9177    2.7094   -0.0521 N   0  0  0  0  0  0
    0.6105   -2.9453   -2.7758 H   0  0  0  0  0  0
   -1.2886   -1.5705   -3.2806 H   0  0  0  0  0  0
   -3.4904   -2.3224   -2.0814 H   0  0  0  0  0  0
   -3.1383   -2.9790   -3.6318 H   0  0  0  0  0  0
   -2.9621   -4.3298   -0.9130 H   0  0  0  0  0  0
   -1.7815   -6.2203   -1.7763 H   0  0  0  0  0  0
   -1.8387   -5.6775   -3.4163 H   0  0  0  0  0  0
   -0.1502   -4.5282   -1.1310 H   0  0  0  0  0  0
    0.4053   -5.2950   -2.6032 H   0  0  0  0  0  0
   -0.3640   -0.0624   -2.0814 H   0  0  0  0  0  0
   -4.1710   -5.0927   -3.3271 H   0  0  0  0  0  0
   -0.5170   -0.1873    0.8963 H   0  0  0  0  0  0
    1.9563    0.7224   -0.6456 H   0  0  0  0  0  0
    1.7817    0.6315    1.0747 H   0  0  0  0  0  0
    3.5885   -3.4603   -1.9235 H   0  0  0  0  0  0
    2.8269   -1.1374   -1.8593 H   0  0  0  0  0  0
    1.3059   -1.7387    2.1132 H   0  0  0  0  0  0
    2.0498   -4.0696    2.0469 H   0  0  0  0  0  0
    4.0199   -5.4368    2.0376 H   0  0  0  0  0  0
    4.7037   -7.7799    1.9558 H   0  0  0  0  0  0
    3.3879   -8.0155   -2.1391 H   0  0  0  0  0  0
    2.6976   -5.6760   -2.0484 H   0  0  0  0  0  0
  1  2  1  0  0  0
  1  6  1  0  0  0
  1 29  1  0  0  0
  2  3  1  0  0  0
  2  7  1  0  0  0
  2 30  1  0  0  0
  3  4  1  0  0  0
  3 31  1  0  0  0
  3 32  1  0  0  0
  4  5  1  0  0  0
  4 10  1  0  0  0
  4 33  1  0  0  0
  5  6  1  0  0  0
  5 34  1  0  0  0
  5 35  1  0  0  0
  6 36  1  0  0  0
  6 37  1  0  0  0
  7  8  2  0  0  0
  7  9  1  0  0  0
  9 11  1  0  0  0
  9 38  1  0  0  0
 10 39  1  0  0  0
 11 12  1  0  0  0
 11 27  1  0  0  0
 11 40  1  0  0  0
 12 16  1  0  0  0
 12 41  1  0  0  0
 12 42  1  0  0  0
 13 14  2  0  0  0
 13 18  1  0  0  0
 13 19  1  0  0  0
 14 15  1  0  0  0
 14 43  1  0  0  0
 15 16  2  0  0  0
 15 44  1  0  0  0
 16 17  1  0  0  0
 17 18  2  0  0  0
 17 45  1  0  0  0
 18 46  1  0  0  0
 19 20  2  0  0  0
 19 24  1  0  0  0
 20 21  1  0  0  0
 20 47  1  0  0  0
 21 22  2  0  0  0
 21 48  1  0  0  0
 22 23  1  0  0  0
 22 25  1  0  0  0
 23 24  2  0  0  0
 23 49  1  0  0  0
 24 50  1  0  0  0
 25 26  3  0  0  0
 27 28  3  0  0  0
M  END
> <chembl_id>
CHEMBL3261922

> <chembl_pref_name>
None

> <i_m_ct_stereo_status>
1

> <s_m_source_file>
sdf/inactives_sanitized.sdf

> <i_m_source_file_index>
90

> <i_lp_mmshare_version>
49012

> <i_f3d_flags>
0

> <s_epik_input>
W0NIMl0xW0NAQEhdKFtPSF0pW0NIMl1bQ0gyXVtOSF1bQ0BASF0xQyg9TylbTkhdW0NASF0oQyNOKVtDSDJdYyhbY0hdW2NIXTIpW2NIXVtjSF1jMi1jM1tjSF1bY0hdYyhDI04pW2NIXVtjSF0z

> <s_epik_cmdline>
J2VwaWtfcHl0aG9uJywgJy1waHQnLCAnMC41JywgJy1waCcsICc3LjUnLCAnLW50JywgJy1tYScsICcyMDAnLCAnLWltYWUnLCAnPGluZmlsZS5tYWU+JywgJy1vbWFlJywgJzxvdXRmaWxlLm1hZT4n

> <r_epik_Ionization_Penalty>
  0.1546

> <r_epik_Ionization_Penalty_Charging>
  0.0000

> <r_epik_Ionization_Penalty_Neutral>
  0.1546

> <r_epik_State_Penalty>
  0.1438

> <r_epik_Charging_Adjusted_Penalty>
0.143848342138556

> <i_epik_Tot_Q>
0

> <i_epik_Tot_abs_Q>
0

> <s_lp_Force_Field>
OPLS3e

> <r_lp_Energy>
29.853727

> <b_lp_Chiralities_Consistent>
1

> <s_lp_Variant>
sdf/inactives_sanitized.sdf:90-1

$$$$
sdf/inactives_sanitized.sdf:91
                    3D
 Schrodinger Suite 2020-1.
 59 62  0  0  1  0            999 V2000
   -3.3941    2.7751    0.7982 C   0  0  2  0  0  0
   -3.0502    1.8528   -0.3646 C   0  0  0  0  0  0
   -2.2306    0.7155    0.2578 C   0  0  2  0  0  0
   -2.7104    0.6722    1.6525 N   0  0  0  0  0  0
   -3.3993    1.9047    2.0599 C   0  0  0  0  0  0
   -5.0216    3.7087    0.5336 S   0  0  0  0  0  0
   -0.7048    0.9500    0.2055 C   0  0  0  0  0  0
    0.0474   -0.1135   -0.1285 N   0  0  0  0  0  0
   -0.2257    2.0439    0.5095 O   0  0  0  0  0  0
    1.5161   -0.1428   -0.1634 C   0  0  2  0  0  0
    1.8605   -0.8242   -1.4866 C   0  0  0  0  0  0
    2.1307   -0.8469    1.0772 C   0  0  0  0  0  0
    1.5172   -0.1549   -2.7457 C   0  0  0  0  0  0
    2.4418   -1.9118   -1.5087 O   0  0  0  0  0  0
    1.6418   -0.6381   -3.9682 N   0  0  0  0  0  0
    1.0043    1.1145   -2.6746 O   0  0  0  0  0  0
    0.7779    1.4500   -3.9724 C   0  0  0  0  0  0
    1.1741    0.3656   -4.7697 C   0  0  0  0  0  0
    1.0447    0.4530   -6.1645 C   0  0  0  0  0  0
    0.5173    1.6337   -6.7013 C   0  0  0  0  0  0
    0.1277    2.7005   -5.8832 C   0  0  0  0  0  0
    0.2494    2.6353   -4.4924 C   0  0  0  0  0  0
   -5.2110    4.6512    2.0463 C   0  0  0  0  0  0
   -4.8319    4.6702   -0.5584 O   0  0  0  0  0  0
   -6.1194    2.7361    0.4762 O   0  0  0  0  0  0
   -5.9974    4.1525    3.0881 C   0  0  0  0  0  0
   -6.1319    4.8850    4.2646 C   0  0  0  0  0  0
   -5.4802    6.1101    4.3937 C   0  0  0  0  0  0
   -4.6931    6.6096    3.3577 C   0  0  0  0  0  0
   -4.5570    5.8784    2.1804 C   0  0  0  0  0  0
   -2.6857   -0.4503    2.4147 C   0  0  0  0  0  0
   -2.1964   -1.5107    2.0228 O   0  0  0  0  0  0
   -3.2584   -0.3961    3.8344 C   0  0  0  0  0  0
    1.8213   -0.1423    2.4090 C   0  0  0  0  0  0
   -2.6367    3.5552    0.8868 H   0  0  0  0  0  0
   -3.9616    1.4182   -0.7787 H   0  0  0  0  0  0
   -2.5653    2.3507   -1.2063 H   0  0  0  0  0  0
   -2.4084   -0.2433   -0.2337 H   0  0  0  0  0  0
   -4.4355    1.6708    2.3079 H   0  0  0  0  0  0
   -2.9285    2.4297    2.8921 H   0  0  0  0  0  0
   -0.4094   -0.9994   -0.2917 H   0  0  0  0  0  0
    1.9214    0.8712   -0.2015 H   0  0  0  0  0  0
    1.7689   -1.8747    1.1450 H   0  0  0  0  0  0
    3.2148   -0.9072    0.9660 H   0  0  0  0  0  0
    1.3407   -0.3640   -6.8063 H   0  0  0  0  0  0
    0.4072    1.7239   -7.7723 H   0  0  0  0  0  0
   -0.2762    3.5935   -6.3375 H   0  0  0  0  0  0
   -0.0491    3.4540   -3.8545 H   0  0  0  0  0  0
   -6.5012    3.2018    2.9930 H   0  0  0  0  0  0
   -6.7386    4.5050    5.0733 H   0  0  0  0  0  0
   -5.5859    6.6779    5.3064 H   0  0  0  0  0  0
   -4.1906    7.5594    3.4676 H   0  0  0  0  0  0
   -3.9437    6.2649    1.3794 H   0  0  0  0  0  0
   -4.3465   -0.3390    3.8028 H   0  0  0  0  0  0
   -2.8777    0.4685    4.3788 H   0  0  0  0  0  0
   -2.9827   -1.2902    4.3946 H   0  0  0  0  0  0
    2.3264   -0.6390    3.2377 H   0  0  0  0  0  0
    0.7529   -0.1482    2.6274 H   0  0  0  0  0  0
    2.1539    0.8961    2.3927 H   0  0  0  0  0  0
  1  2  1  0  0  0
  1  5  1  0  0  0
  1  6  1  0  0  0
  1 35  1  0  0  0
  2  3  1  0  0  0
  2 36  1  0  0  0
  2 37  1  0  0  0
  3  4  1  0  0  0
  3  7  1  0  0  0
  3 38  1  0  0  0
  4  5  1  0  0  0
  4 31  1  0  0  0
  5 39  1  0  0  0
  5 40  1  0  0  0
  6 23  1  0  0  0
  6 24  2  0  0  0
  6 25  2  0  0  0
  7  8  1  0  0  0
  7  9  2  0  0  0
  8 10  1  0  0  0
  8 41  1  0  0  0
 10 11  1  0  0  0
 10 12  1  0  0  0
 10 42  1  0  0  0
 11 13  1  0  0  0
 11 14  2  0  0  0
 12 34  1  0  0  0
 12 43  1  0  0  0
 12 44  1  0  0  0
 13 15  2  0  0  0
 13 16  1  0  0  0
 15 18  1  0  0  0
 16 17  1  0  0  0
 17 18  2  0  0  0
 17 22  1  0  0  0
 18 19  1  0  0  0
 19 20  2  0  0  0
 19 45  1  0  0  0
 20 21  1  0  0  0
 20 46  1  0  0  0
 21 22  2  0  0  0
 21 47  1  0  0  0
 22 48  1  0  0  0
 23 26  2  0  0  0
 23 30  1  0  0  0
 26 27  1  0  0  0
 26 49  1  0  0  0
 27 28  2  0  0  0
 27 50  1  0  0  0
 28 29  1  0  0  0
 28 51  1  0  0  0
 29 30  2  0  0  0
 29 52  1  0  0  0
 30 53  1  0  0  0
 31 32  2  0  0  0
 31 33  1  0  0  0
 33 54  1  0  0  0
 33 55  1  0  0  0
 33 56  1  0  0  0
 34 57  1  0  0  0
 34 58  1  0  0  0
 34 59  1  0  0  0
M  END
> <chembl_id>
CHEMBL2380735

> <chembl_pref_name>
None

> <i_m_ct_stereo_status>
1

> <s_m_source_file>
sdf/inactives_sanitized.sdf

> <i_m_source_file_index>
91

> <i_lp_mmshare_version>
49012

> <i_f3d_flags>
0

> <s_epik_input>
W2NIXTFbY0hdW2NIXVtjSF1bY0hdYzFTKD1PKSg9TylbQ0BASF0yW0NIMl1bQ0BIXShOKFtDSDJdMilDKD1PKVtDSDNdKUMoPU8pW05IXVtDQEBIXShbQ0gyXVtDSDNdKUMoPU8pYyhvMyluYyhjMzQpW2NIXVtjSF1bY0hdW2NIXTQ=

> <s_epik_cmdline>
J2VwaWtfcHl0aG9uJywgJy1waHQnLCAnMC41JywgJy1waCcsICc3LjUnLCAnLW50JywgJy1tYScsICcyMDAnLCAnLWltYWUnLCAnPGluZmlsZS5tYWU+JywgJy1vbWFlJywgJzxvdXRmaWxlLm1hZT4n

> <r_lp_tautomer_probability>
1

> <r_epik_Ionization_Penalty>
  0.0000

> <r_epik_Ionization_Penalty_Charging>
  0.0000

> <r_epik_Ionization_Penalty_Neutral>
  0.0000

> <r_epik_State_Penalty>
 -0.0000

> <r_epik_Charging_Adjusted_Penalty>
0

> <i_epik_Tot_Q>
0

> <i_epik_Tot_abs_Q>
0

> <s_lp_Force_Field>
OPLS3e

> <r_lp_Energy>
39.065877

> <b_lp_Chiralities_Consistent>
1

> <s_lp_Variant>
sdf/inactives_sanitized.sdf:91-1

$$$$
sdf/inactives_sanitized.sdf:92
                    3D
 Schrodinger Suite 2020-1.
 66 70  0  0  1  0            999 V2000
   -2.4338    3.0450   -0.5631 C   0  0  2  0  0  0
   -1.8527    1.7469   -1.1021 C   0  0  0  0  0  0
   -1.5368    0.9088    0.1429 C   0  0  2  0  0  0
   -2.4988    1.4020    1.1520 N   0  0  0  0  0  0
   -3.0951    2.6921    0.7712 C   0  0  0  0  0  0
   -3.6276    3.8737   -1.7779 S   0  0  0  0  0  0
   -0.0719    1.0792    0.6048 C   0  0  0  0  0  0
    0.7290    0.0122    0.4378 N   0  0  0  0  0  0
    0.3355    2.1687    1.0121 O   0  0  0  0  0  0
    2.1607   -0.0409    0.7658 C   0  0  2  0  0  0
    2.8331   -0.5864   -0.4941 C   0  0  0  0  0  0
    2.4474   -0.8801    2.0402 C   0  0  0  0  0  0
    1.8088   -0.3058    3.3163 C   0  0  0  0  0  0
    2.7867    0.2044   -1.7292 C   0  0  0  0  0  0
    3.4330   -1.6636   -0.4769 O   0  0  0  0  0  0
    2.2821    1.4126   -1.9021 N   0  0  0  0  0  0
    3.3198   -0.3658   -2.8563 O   0  0  0  0  0  0
    3.1180    0.5693   -3.8235 C   0  0  0  0  0  0
    2.4737    1.6657   -3.2309 C   0  0  0  0  0  0
    2.1413    2.7787   -4.0184 C   0  0  0  0  0  0
    2.4745    2.7423   -5.3778 C   0  0  0  0  0  0
    3.1192    1.6369   -5.9448 C   0  0  0  0  0  0
    3.4581    0.5181   -5.1789 C   0  0  0  0  0  0
   -4.2274    5.2890   -0.8564 C   0  0  0  0  0  0
   -2.8540    4.3842   -2.9156 O   0  0  0  0  0  0
   -4.7685    2.9783   -2.0042 O   0  0  0  0  0  0
   -5.4018    5.1867   -0.1054 C   0  0  0  0  0  0
   -5.8511    6.2816    0.6279 C   0  0  0  0  0  0
   -5.1263    7.4716    0.6057 C   0  0  0  0  0  0
   -3.9552    7.5775   -0.1423 C   0  0  0  0  0  0
   -3.5029    6.4833   -0.8748 C   0  0  0  0  0  0
   -2.8041    0.7087    2.2843 C   0  0  0  0  0  0
   -2.2475   -0.3505    2.5824 O   0  0  0  0  0  0
   -3.8325    1.2733    3.2336 C   0  0  0  0  0  0
   -3.4835    1.4981    4.5705 C   0  0  0  0  0  0
   -4.4242    2.0036    5.4644 C   0  0  0  0  0  0
   -5.7183    2.2738    5.0257 C   0  0  0  0  0  0
   -6.0829    2.0353    3.7029 C   0  0  0  0  0  0
   -5.1435    1.5291    2.8087 C   0  0  0  0  0  0
   -1.6373    3.7744   -0.4092 H   0  0  0  0  0  0
   -2.6068    1.2135   -1.6828 H   0  0  0  0  0  0
   -1.0129    1.8800   -1.7871 H   0  0  0  0  0  0
   -1.6868   -0.1592   -0.0279 H   0  0  0  0  0  0
   -4.1596    2.5586    0.5860 H   0  0  0  0  0  0
   -2.9475    3.4884    1.5020 H   0  0  0  0  0  0
    0.3228   -0.8569    0.1221 H   0  0  0  0  0  0
    2.5575    0.9627    0.9374 H   0  0  0  0  0  0
    2.0844   -1.9013    1.9079 H   0  0  0  0  0  0
    3.5247   -0.9532    2.1994 H   0  0  0  0  0  0
    2.0705   -0.9078    4.1867 H   0  0  0  0  0  0
    0.7206   -0.2868    3.2474 H   0  0  0  0  0  0
    2.1491    0.7130    3.5039 H   0  0  0  0  0  0
    1.6431    3.6375   -3.5929 H   0  0  0  0  0  0
    2.2282    3.5868   -6.0048 H   0  0  0  0  0  0
    3.3585    1.6490   -6.9983 H   0  0  0  0  0  0
    3.9542   -0.3387   -5.6101 H   0  0  0  0  0  0
   -5.9625    4.2637   -0.0807 H   0  0  0  0  0  0
   -6.7560    6.2081    1.2130 H   0  0  0  0  0  0
   -5.4749    8.3200    1.1761 H   0  0  0  0  0  0
   -3.3988    8.5033   -0.1517 H   0  0  0  0  0  0
   -2.5911    6.5649   -1.4484 H   0  0  0  0  0  0
   -2.4824    1.2897    4.9216 H   0  0  0  0  0  0
   -4.1520    2.1833    6.4941 H   0  0  0  0  0  0
   -6.4480    2.6643    5.7198 H   0  0  0  0  0  0
   -7.0920    2.2355    3.3736 H   0  0  0  0  0  0
   -5.4479    1.3259    1.7921 H   0  0  0  0  0  0
  1  2  1  0  0  0
  1  5  1  0  0  0
  1  6  1  0  0  0
  1 40  1  0  0  0
  2  3  1  0  0  0
  2 41  1  0  0  0
  2 42  1  0  0  0
  3  4  1  0  0  0
  3  7  1  0  0  0
  3 43  1  0  0  0
  4  5  1  0  0  0
  4 32  1  0  0  0
  5 44  1  0  0  0
  5 45  1  0  0  0
  6 24  1  0  0  0
  6 25  2  0  0  0
  6 26  2  0  0  0
  7  8  1  0  0  0
  7  9  2  0  0  0
  8 10  1  0  0  0
  8 46  1  0  0  0
 10 11  1  0  0  0
 10 12  1  0  0  0
 10 47  1  0  0  0
 11 14  1  0  0  0
 11 15  2  0  0  0
 12 13  1  0  0  0
 12 48  1  0  0  0
 12 49  1  0  0  0
 13 50  1  0  0  0
 13 51  1  0  0  0
 13 52  1  0  0  0
 14 16  2  0  0  0
 14 17  1  0  0  0
 16 19  1  0  0  0
 17 18  1  0  0  0
 18 19  2  0  0  0
 18 23  1  0  0  0
 19 20  1  0  0  0
 20 21  2  0  0  0
 20 53  1  0  0  0
 21 22  1  0  0  0
 21 54  1  0  0  0
 22 23  2  0  0  0
 22 55  1  0  0  0
 23 56  1  0  0  0
 24 27  2  0  0  0
 24 31  1  0  0  0
 27 28  1  0  0  0
 27 57  1  0  0  0
 28 29  2  0  0  0
 28 58  1  0  0  0
 29 30  1  0  0  0
 29 59  1  0  0  0
 30 31  2  0  0  0
 30 60  1  0  0  0
 31 61  1  0  0  0
 32 33  2  0  0  0
 32 34  1  0  0  0
 34 35  2  0  0  0
 34 39  1  0  0  0
 35 36  1  0  0  0
 35 62  1  0  0  0
 36 37  2  0  0  0
 36 63  1  0  0  0
 37 38  1  0  0  0
 37 64  1  0  0  0
 38 39  2  0  0  0
 38 65  1  0  0  0
 39 66  1  0  0  0
M  END
> <chembl_id>
CHEMBL2380716

> <chembl_pref_name>
None

> <i_m_ct_stereo_status>
1

> <s_m_source_file>
sdf/inactives_sanitized.sdf

> <i_m_source_file_index>
92

> <i_lp_mmshare_version>
49012

> <i_f3d_flags>
0

> <s_epik_input>
W2NIXTFbY0hdW2NIXVtjSF1bY0hdYzFTKD1PKSg9TylbQ0BASF0yW0NIMl1bQ0BIXShOKFtDSDJdMilDKD1PKWMzW2NIXVtjSF1bY0hdW2NIXVtjSF0zKUMoPU8pW05IXVtDQEBIXShbQ0gyXVtDSDNdKUMoPU8pYyhvNCluYyhjNDUpW2NIXVtjSF1bY0hdW2NIXTU=

> <s_epik_cmdline>
J2VwaWtfcHl0aG9uJywgJy1waHQnLCAnMC41JywgJy1waCcsICc3LjUnLCAnLW50JywgJy1tYScsICcyMDAnLCAnLWltYWUnLCAnPGluZmlsZS5tYWU+JywgJy1vbWFlJywgJzxvdXRmaWxlLm1hZT4n

> <r_lp_tautomer_probability>
1

> <r_epik_Ionization_Penalty>
  0.0000

> <r_epik_Ionization_Penalty_Charging>
  0.0000

> <r_epik_Ionization_Penalty_Neutral>
  0.0000

> <r_epik_State_Penalty>
 -0.0000

> <r_epik_Charging_Adjusted_Penalty>
0

> <i_epik_Tot_Q>
0

> <i_epik_Tot_abs_Q>
0

> <s_lp_Force_Field>
OPLS3e

> <r_lp_Energy>
50.860246

> <b_lp_Chiralities_Consistent>
1

> <s_lp_Variant>
sdf/inactives_sanitized.sdf:92-1

$$$$
sdf/inactives_sanitized.sdf:93
                    3D
 Schrodinger Suite 2020-1.
 76 81  0  0  1  0            999 V2000
   -1.5171   -0.1276   -1.6029 C   0  0  2  0  0  0
   -0.2132   -0.8766   -1.3429 C   0  0  0  0  0  0
    0.6744    0.1239   -0.5711 C   0  0  2  0  0  0
   -0.0375    1.4231   -0.6464 N   0  0  0  0  0  0
   -1.0960    1.3416   -1.6599 C   0  0  0  0  0  0
   -2.7476   -0.4130   -0.1761 S   0  0  0  0  0  0
    2.1471    0.1620   -1.0523 C   0  0  0  0  0  0
    2.7980    1.3375   -0.9731 N   0  0  0  0  0  0
    2.7124   -0.8821   -1.3797 O   0  0  0  0  0  0
    4.2338    1.5602   -1.1839 C   0  0  2  0  0  0
    4.5887    2.6652   -0.1847 C   0  0  0  0  0  0
    4.5922    1.9282   -2.6527 C   0  0  0  0  0  0
    4.3107    0.8176   -3.6778 C   0  0  0  0  0  0
    4.3237    2.4606    1.2444 C   0  0  0  0  0  0
    5.1064    3.7191   -0.5619 O   0  0  0  0  0  0
    3.9981    1.3371    1.8576 N   0  0  0  0  0  0
    4.3868    3.5652    2.0533 O   0  0  0  0  0  0
    4.0523    3.0893    3.2828 C   0  0  0  0  0  0
    3.8104    1.7129    3.1577 C   0  0  0  0  0  0
    3.4383    0.9729    4.2904 C   0  0  0  0  0  0
    3.3249    1.6525    5.5092 C   0  0  0  0  0  0
    3.5724    3.0266    5.6079 C   0  0  0  0  0  0
    3.9441    3.7826    4.4926 C   0  0  0  0  0  0
   -3.2803   -2.1071   -0.4187 C   0  0  0  0  0  0
   -2.0354   -0.3521    1.1060 O   0  0  0  0  0  0
   -3.9206    0.4387   -0.4041 O   0  0  0  0  0  0
   -4.2925   -2.3831   -1.3412 C   0  0  0  0  0  0
   -4.7088   -3.6968   -1.5398 C   0  0  0  0  0  0
   -4.1106   -4.7269   -0.8167 C   0  0  0  0  0  0
   -3.0996   -4.4560    0.1036 C   0  0  0  0  0  0
   -2.6828   -3.1427    0.3046 C   0  0  0  0  0  0
   -0.0279    2.3169    0.3846 C   0  0  0  0  0  0
    0.6337    2.1304    1.4092 O   0  0  0  0  0  0
   -0.8315    3.5937    0.2684 C   0  0  0  0  0  0
   -0.8851    4.3161   -0.9297 C   0  0  0  0  0  0
   -1.6206    5.4950   -1.0086 C   0  0  0  0  0  0
   -2.3079    5.9907    0.1068 C   0  0  0  0  0  0
   -2.2277    5.2765    1.3093 C   0  0  0  0  0  0
   -1.4936    4.0968    1.3928 C   0  0  0  0  0  0
   -3.1060    7.2519    0.0158 C   0  0  0  0  0  0
   -3.1947    8.1264    1.1092 C   0  0  0  0  0  0
   -3.9397    9.2997    1.0261 C   0  0  0  0  0  0
   -4.6070    9.6104   -0.1547 C   0  0  0  0  0  0
   -4.5330    8.7577   -1.2516 C   0  0  0  0  0  0
   -3.7857    7.5860   -1.1651 C   0  0  0  0  0  0
   -2.0489   -0.4521   -2.4978 H   0  0  0  0  0  0
   -0.3518   -1.8213   -0.8171 H   0  0  0  0  0  0
    0.2007   -1.1233   -2.3229 H   0  0  0  0  0  0
    0.7799   -0.1720    0.4743 H   0  0  0  0  0  0
   -1.9385    2.0261   -1.5589 H   0  0  0  0  0  0
   -0.6155    1.4975   -2.6268 H   0  0  0  0  0  0
    2.2791    2.1503   -0.6726 H   0  0  0  0  0  0
    4.7941    0.6663   -0.8995 H   0  0  0  0  0  0
    4.0446    2.8215   -2.9593 H   0  0  0  0  0  0
    5.6523    2.1803   -2.7171 H   0  0  0  0  0  0
    4.6540    1.1108   -4.6703 H   0  0  0  0  0  0
    3.2449    0.6018   -3.7547 H   0  0  0  0  0  0
    4.8236   -0.1068   -3.4105 H   0  0  0  0  0  0
    3.2427   -0.0875    4.2265 H   0  0  0  0  0  0
    3.0385    1.1040    6.3947 H   0  0  0  0  0  0
    3.4725    3.5130    6.5675 H   0  0  0  0  0  0
    4.1343    4.8435    4.5604 H   0  0  0  0  0  0
   -4.7553   -1.5856   -1.9041 H   0  0  0  0  0  0
   -5.4915   -3.9163   -2.2510 H   0  0  0  0  0  0
   -4.4337   -5.7459   -0.9713 H   0  0  0  0  0  0
   -2.6413   -5.2611    0.6588 H   0  0  0  0  0  0
   -1.8977   -2.9369    1.0175 H   0  0  0  0  0  0
   -0.3534    3.9762   -1.8068 H   0  0  0  0  0  0
   -1.6402    6.0291   -1.9472 H   0  0  0  0  0  0
   -2.7466    5.6241    2.1905 H   0  0  0  0  0  0
   -1.4579    3.5692    2.3358 H   0  0  0  0  0  0
   -2.6771    7.9077    2.0316 H   0  0  0  0  0  0
   -3.9984    9.9663    1.8740 H   0  0  0  0  0  0
   -5.1865   10.5194   -0.2206 H   0  0  0  0  0  0
   -5.0551    9.0022   -2.1651 H   0  0  0  0  0  0
   -3.7501    6.9316   -2.0237 H   0  0  0  0  0  0
  1  2  1  0  0  0
  1  5  1  0  0  0
  1  6  1  0  0  0
  1 46  1  0  0  0
  2  3  1  0  0  0
  2 47  1  0  0  0
  2 48  1  0  0  0
  3  4  1  0  0  0
  3  7  1  0  0  0
  3 49  1  0  0  0
  4  5  1  0  0  0
  4 32  1  0  0  0
  5 50  1  0  0  0
  5 51  1  0  0  0
  6 24  1  0  0  0
  6 25  2  0  0  0
  6 26  2  0  0  0
  7  8  1  0  0  0
  7  9  2  0  0  0
  8 10  1  0  0  0
  8 52  1  0  0  0
 10 11  1  0  0  0
 10 12  1  0  0  0
 10 53  1  0  0  0
 11 14  1  0  0  0
 11 15  2  0  0  0
 12 13  1  0  0  0
 12 54  1  0  0  0
 12 55  1  0  0  0
 13 56  1  0  0  0
 13 57  1  0  0  0
 13 58  1  0  0  0
 14 16  2  0  0  0
 14 17  1  0  0  0
 16 19  1  0  0  0
 17 18  1  0  0  0
 18 19  2  0  0  0
 18 23  1  0  0  0
 19 20  1  0  0  0
 20 21  2  0  0  0
 20 59  1  0  0  0
 21 22  1  0  0  0
 21 60  1  0  0  0
 22 23  2  0  0  0
 22 61  1  0  0  0
 23 62  1  0  0  0
 24 27  2  0  0  0
 24 31  1  0  0  0
 27 28  1  0  0  0
 27 63  1  0  0  0
 28 29  2  0  0  0
 28 64  1  0  0  0
 29 30  1  0  0  0
 29 65  1  0  0  0
 30 31  2  0  0  0
 30 66  1  0  0  0
 31 67  1  0  0  0
 32 33  2  0  0  0
 32 34  1  0  0  0
 34 35  2  0  0  0
 34 39  1  0  0  0
 35 36  1  0  0  0
 35 68  1  0  0  0
 36 37  2  0  0  0
 36 69  1  0  0  0
 37 38  1  0  0  0
 37 40  1  0  0  0
 38 39  2  0  0  0
 38 70  1  0  0  0
 39 71  1  0  0  0
 40 41  2  0  0  0
 40 45  1  0  0  0
 41 42  1  0  0  0
 41 72  1  0  0  0
 42 43  2  0  0  0
 42 73  1  0  0  0
 43 44  1  0  0  0
 43 74  1  0  0  0
 44 45  2  0  0  0
 44 75  1  0  0  0
 45 76  1  0  0  0
M  END
> <chembl_id>
CHEMBL2380726

> <chembl_pref_name>
None

> <i_m_ct_stereo_status>
1

> <s_m_source_file>
sdf/inactives_sanitized.sdf

> <i_m_source_file_index>
93

> <i_lp_mmshare_version>
49012

> <i_f3d_flags>
0

> <s_epik_input>
W2NIXTFbY0hdW2NIXVtjSF1jKGMxMiluYyhvMilDKD1PKVtDQEhdKFtDSDJdW0NIM10pW05IXUMoPU8pW0NASF0oW0NIMl1bQ0BIXTNTKD1PKSg9TyljNFtjSF1bY0hdW2NIXVtjSF1bY0hdNClOKFtDSDJdMylDKD1PKWM1W2NIXVtjSF1jKFtjSF1bY0hdNSktYzZbY0hdW2NIXVtjSF1bY0hdW2NIXTY=

> <s_epik_cmdline>
J2VwaWtfcHl0aG9uJywgJy1waHQnLCAnMC41JywgJy1waCcsICc3LjUnLCAnLW50JywgJy1tYScsICcyMDAnLCAnLWltYWUnLCAnPGluZmlsZS5tYWU+JywgJy1vbWFlJywgJzxvdXRmaWxlLm1hZT4n

> <r_lp_tautomer_probability>
1

> <r_epik_Ionization_Penalty>
  0.0000

> <r_epik_Ionization_Penalty_Charging>
  0.0000

> <r_epik_Ionization_Penalty_Neutral>
  0.0000

> <r_epik_State_Penalty>
 -0.0000

> <r_epik_Charging_Adjusted_Penalty>
0

> <i_epik_Tot_Q>
0

> <i_epik_Tot_abs_Q>
0

> <s_lp_Force_Field>
OPLS3e

> <r_lp_Energy>
63.299153

> <b_lp_Chiralities_Consistent>
1

> <s_lp_Variant>
sdf/inactives_sanitized.sdf:93-1

$$$$
sdf/inactives_sanitized.sdf:94
                    3D
 Schrodinger Suite 2020-1.
 55 58  0  0  1  0            999 V2000
   -1.7163    3.1899   -2.0968 N   0  0  0  0  0  0
   -0.3670    3.0692   -2.0423 C   0  0  0  0  0  0
    0.6081    4.2126   -2.7357 S   0  0  0  0  0  0
    0.1770    1.9947   -1.4056 N   0  0  0  0  0  0
   -0.5420    1.0250   -0.7871 N   0  0  0  0  0  0
    0.0819    0.0798   -0.1674 C   0  0  0  0  0  0
   -0.7641   -1.0440    0.3607 C   0  0  0  0  0  0
   -0.2601   -1.9897    1.2747 C   0  0  0  0  0  0
   -1.0496   -3.0289    1.7603 C   0  0  0  0  0  0
   -2.3708   -3.1440    1.3468 C   0  0  0  0  0  0
   -2.9077   -2.2222    0.4570 C   0  0  0  0  0  0
   -2.1143   -1.1846   -0.0246 C   0  0  0  0  0  0
    1.5624    0.0802    0.0817 C   0  0  0  0  0  0
    2.2367    1.2288    0.5254 C   0  0  0  0  0  0
    3.6217    1.2439    0.7369 C   0  0  0  0  0  0
    4.3495    0.0778    0.4702 C   0  0  0  0  0  0
    3.7122   -1.1011    0.0627 C   0  0  0  0  0  0
    2.3269   -1.0736   -0.1457 C   0  0  0  0  0  0
    4.4900   -2.3474   -0.2545 C   0  0  0  0  0  0
    4.0525   -3.1385   -1.0944 O   0  0  0  0  0  0
    5.7944   -2.6451    0.4299 C   0  0  0  0  0  0
    6.7572   -3.4253   -0.2277 C   0  0  0  0  0  0
    7.9561   -3.7467    0.4028 C   0  0  0  0  0  0
    8.1922   -3.3069    1.7022 C   0  0  0  0  0  0
    7.2354   -2.5567    2.3799 C   0  0  0  0  0  0
    6.0361   -2.2350    1.7499 C   0  0  0  0  0  0
    4.3418    2.5016    1.1369 C   0  0  0  0  0  0
    5.5235    2.6553    0.8166 O   0  0  0  0  0  0
    3.6394    3.5857    1.9020 C   0  0  0  0  0  0
    4.0244    4.9218    1.7200 C   0  0  0  0  0  0
    3.4099    5.9375    2.4478 C   0  0  0  0  0  0
    2.4217    5.6214    3.3759 C   0  0  0  0  0  0
    2.0497    4.2973    3.5901 C   0  0  0  0  0  0
    2.6633    3.2810    2.8627 C   0  0  0  0  0  0
   -2.1295    3.9869   -2.5591 H   0  0  0  0  0  0
   -2.2998    2.4836   -1.6721 H   0  0  0  0  0  0
    1.1805    1.8957   -1.3489 H   0  0  0  0  0  0
    0.7475   -1.9276    1.6554 H   0  0  0  0  0  0
   -0.6384   -3.7395    2.4623 H   0  0  0  0  0  0
   -2.9847   -3.9492    1.7231 H   0  0  0  0  0  0
   -3.9363   -2.3103    0.1396 H   0  0  0  0  0  0
   -2.5717   -0.4942   -0.7186 H   0  0  0  0  0  0
    1.6662    2.1301    0.6989 H   0  0  0  0  0  0
    5.4254    0.0933    0.5780 H   0  0  0  0  0  0
    1.8323   -1.9644   -0.5096 H   0  0  0  0  0  0
    6.5906   -3.7802   -1.2353 H   0  0  0  0  0  0
    8.6984   -4.3375   -0.1134 H   0  0  0  0  0  0
    9.1218   -3.5577    2.1916 H   0  0  0  0  0  0
    7.4197   -2.2317    3.3934 H   0  0  0  0  0  0
    5.2985   -1.6737    2.3053 H   0  0  0  0  0  0
    4.7924    5.1855    1.0061 H   0  0  0  0  0  0
    3.7008    6.9664    2.2946 H   0  0  0  0  0  0
    1.9463    6.4093    3.9414 H   0  0  0  0  0  0
    1.2933    4.0586    4.3232 H   0  0  0  0  0  0
    2.3755    2.2586    3.0614 H   0  0  0  0  0  0
  1  2  1  0  0  0
  1 35  1  0  0  0
  1 36  1  0  0  0
  2  3  2  0  0  0
  2  4  1  0  0  0
  4  5  1  0  0  0
  4 37  1  0  0  0
  5  6  2  0  0  0
  6  7  1  0  0  0
  6 13  1  0  0  0
  7  8  2  0  0  0
  7 12  1  0  0  0
  8  9  1  0  0  0
  8 38  1  0  0  0
  9 10  2  0  0  0
  9 39  1  0  0  0
 10 11  1  0  0  0
 10 40  1  0  0  0
 11 12  2  0  0  0
 11 41  1  0  0  0
 12 42  1  0  0  0
 13 14  2  0  0  0
 13 18  1  0  0  0
 14 15  1  0  0  0
 14 43  1  0  0  0
 15 16  2  0  0  0
 15 27  1  0  0  0
 16 17  1  0  0  0
 16 44  1  0  0  0
 17 18  2  0  0  0
 17 19  1  0  0  0
 18 45  1  0  0  0
 19 20  2  0  0  0
 19 21  1  0  0  0
 21 22  2  0  0  0
 21 26  1  0  0  0
 22 23  1  0  0  0
 22 46  1  0  0  0
 23 24  2  0  0  0
 23 47  1  0  0  0
 24 25  1  0  0  0
 24 48  1  0  0  0
 25 26  2  0  0  0
 25 49  1  0  0  0
 26 50  1  0  0  0
 27 28  2  0  0  0
 27 29  1  0  0  0
 29 30  2  0  0  0
 29 34  1  0  0  0
 30 31  1  0  0  0
 30 51  1  0  0  0
 31 32  2  0  0  0
 31 52  1  0  0  0
 32 33  1  0  0  0
 32 53  1  0  0  0
 33 34  2  0  0  0
 33 54  1  0  0  0
 34 55  1  0  0  0
M  END
> <chembl_id>
CHEMBL3938699

> <chembl_pref_name>
None

> <s_m_source_file>
sdf/inactives_sanitized.sdf

> <i_m_source_file_index>
94

> <i_lp_mmshare_version>
49012

> <i_m_ct_stereo_status>
1

> <i_f3d_flags>
0

> <s_epik_input>
W2NIXTFbY0hdW2NIXVtjSF1bY0hdYzFcQyg9TlxbTkhdQyg9UylbTkgyXSljMltjSF1jKEMoPU8pYzNbY0hdW2NIXVtjSF1bY0hdW2NIXTMpW2NIXWMoW2NIXTIpQyg9TyljNFtjSF1bY0hdW2NIXVtjSF1bY0hdNA==

> <s_epik_cmdline>
J2VwaWtfcHl0aG9uJywgJy1waHQnLCAnMC41JywgJy1waCcsICc3LjUnLCAnLW50JywgJy1tYScsICcyMDAnLCAnLWltYWUnLCAnPGluZmlsZS5tYWU+JywgJy1vbWFlJywgJzxvdXRmaWxlLm1hZT4n

> <r_lp_tautomer_probability>
1

> <r_epik_Ionization_Penalty>
  0.0001

> <r_epik_Ionization_Penalty_Charging>
  0.0000

> <r_epik_Ionization_Penalty_Neutral>
  0.0001

> <r_epik_State_Penalty>
 -0.0000

> <r_epik_Charging_Adjusted_Penalty>
0

> <i_epik_Tot_Q>
0

> <i_epik_Tot_abs_Q>
0

> <s_epik_Chemistry_Notes>
This compound has an imine and may undergo hydrolysis.

> <s_lp_Force_Field>
OPLS3e

> <r_lp_Energy>
81.144524

> <b_lp_Chiralities_Consistent>
1

> <s_lp_Variant>
sdf/inactives_sanitized.sdf:94-1

$$$$
sdf/inactives_sanitized.sdf:95
                    3D
 Schrodinger Suite 2020-1.
 45 46  0  0  1  0            999 V2000
   -0.6206   -0.7161   -1.2592 C   0  0  0  0  0  0
   -0.0387    0.0286   -0.0377 C   0  0  2  0  0  0
   -3.6131   -0.6221   -3.8047 N   0  0  0  0  0  0
   -3.0888   -1.3224   -3.0474 C   0  0  0  0  0  0
   -0.5313    1.4827   -0.0329 C   0  0  0  0  0  0
   -1.4784    4.1345   -0.0220 C   0  0  0  0  0  0
   -0.1101   -0.5846   -2.3730 O   0  0  0  0  0  0
    1.5105   -0.1081    0.0505 C   0  0  0  0  0  0
   -1.5215    1.8748    0.8708 C   0  0  0  0  0  0
   -0.0196    2.4200   -0.9362 C   0  0  0  0  0  0
   -0.4881    3.7305   -0.9275 C   0  0  0  0  0  0
   -1.9866    3.1865    0.8764 C   0  0  0  0  0  0
   -1.7027   -1.4844   -1.0416 N   0  0  0  0  0  0
   -1.9833    5.5421   -0.0164 C   0  0  0  0  0  0
   -2.4218   -2.2142   -2.0821 C   0  0  0  0  0  0
    2.1873    0.6007    1.2531 C   0  0  0  0  0  0
   -2.3709    6.1609    1.1815 C   0  0  0  0  0  0
   -2.0819    6.2737   -1.2095 C   0  0  0  0  0  0
    3.7208    0.5054    1.1548 C   0  0  0  0  0  0
    1.6961    0.0756    2.6164 C   0  0  0  0  0  0
   -2.5536    7.5838   -1.2067 C   0  0  0  0  0  0
   -2.8424    7.4710    1.1886 C   0  0  0  0  0  0
   -2.9317    8.1778   -0.0066 C   0  0  0  0  0  0
   -0.4423   -0.4596    0.8514 H   0  0  0  0  0  0
    1.7714   -1.1680    0.0821 H   0  0  0  0  0  0
    1.9616    0.2676   -0.8699 H   0  0  0  0  0  0
   -1.9363    1.1649    1.5715 H   0  0  0  0  0  0
    0.7405    2.1357   -1.6489 H   0  0  0  0  0  0
   -0.0653    4.4334   -1.6301 H   0  0  0  0  0  0
   -2.7596    3.4563    1.5808 H   0  0  0  0  0  0
   -2.1075   -1.5030   -0.1170 H   0  0  0  0  0  0
   -3.1856   -2.8362   -1.6157 H   0  0  0  0  0  0
   -1.7498   -2.8829   -2.6226 H   0  0  0  0  0  0
    1.9375    1.6615    1.2061 H   0  0  0  0  0  0
   -2.2994    5.6332    2.1210 H   0  0  0  0  0  0
   -1.8040    5.8271   -2.1530 H   0  0  0  0  0  0
    4.0600   -0.5305    1.1959 H   0  0  0  0  0  0
    4.2045    1.0448    1.9699 H   0  0  0  0  0  0
    4.0854    0.9365    0.2217 H   0  0  0  0  0  0
    1.8734   -0.9956    2.7193 H   0  0  0  0  0  0
    0.6302    0.2535    2.7574 H   0  0  0  0  0  0
    2.2094    0.5756    3.4386 H   0  0  0  0  0  0
   -2.6277    8.1353   -2.1323 H   0  0  0  0  0  0
   -3.1354    7.9370    2.1178 H   0  0  0  0  0  0
   -3.2969    9.1943   -0.0030 H   0  0  0  0  0  0
  1  2  1  0  0  0
  1  7  2  0  0  0
  1 13  1  0  0  0
  2  5  1  0  0  0
  2  8  1  0  0  0
  2 24  1  0  0  0
  3  4  3  0  0  0
  4 15  1  0  0  0
  5  9  2  0  0  0
  5 10  1  0  0  0
  6 11  1  0  0  0
  6 14  1  0  0  0
  6 12  2  0  0  0
  8 16  1  0  0  0
  8 25  1  0  0  0
  8 26  1  0  0  0
  9 12  1  0  0  0
  9 27  1  0  0  0
 10 11  2  0  0  0
 10 28  1  0  0  0
 11 29  1  0  0  0
 12 30  1  0  0  0
 13 15  1  0  0  0
 13 31  1  0  0  0
 14 17  2  0  0  0
 14 18  1  0  0  0
 15 32  1  0  0  0
 15 33  1  0  0  0
 16 19  1  0  0  0
 16 20  1  0  0  0
 16 34  1  0  0  0
 17 22  1  0  0  0
 17 35  1  0  0  0
 18 21  2  0  0  0
 18 36  1  0  0  0
 19 37  1  0  0  0
 19 38  1  0  0  0
 19 39  1  0  0  0
 20 40  1  0  0  0
 20 41  1  0  0  0
 20 42  1  0  0  0
 21 23  1  0  0  0
 21 43  1  0  0  0
 22 23  2  0  0  0
 22 44  1  0  0  0
 23 45  1  0  0  0
M  END
> <chembl_id>
CHEMBL122672

> <chembl_pref_name>
None

> <s_m_source_file>
sdf/inactives_sanitized.sdf

> <i_m_source_file_index>
95

> <i_lp_mmshare_version>
49012

> <i_m_ct_stereo_status>
1

> <i_f3d_flags>
0

> <s_epik_input>
TiNDW0NIMl1bTkhdQyg9TylbQ0BASF0oW0NIMl1bQ0hdKFtDSDNdKVtDSDNdKWMxW2NIXVtjSF1jKFtjSF1bY0hdMSktYzJbY0hdW2NIXVtjSF1bY0hdW2NIXTI=

> <s_epik_cmdline>
J2VwaWtfcHl0aG9uJywgJy1waHQnLCAnMC41JywgJy1waCcsICc3LjUnLCAnLW50JywgJy1tYScsICcyMDAnLCAnLWltYWUnLCAnPGluZmlsZS5tYWU+JywgJy1vbWFlJywgJzxvdXRmaWxlLm1hZT4n

> <r_lp_tautomer_probability>
1

> <r_epik_Ionization_Penalty>
  0.0000

> <r_epik_Ionization_Penalty_Charging>
  0.0000

> <r_epik_Ionization_Penalty_Neutral>
  0.0000

> <r_epik_State_Penalty>
 -0.0000

> <r_epik_Charging_Adjusted_Penalty>
0

> <i_epik_Tot_Q>
0

> <i_epik_Tot_abs_Q>
0

> <s_lp_Force_Field>
OPLS3e

> <r_lp_Energy>
27.198606

> <b_lp_Chiralities_Consistent>
1

> <s_lp_Variant>
sdf/inactives_sanitized.sdf:95-1

$$$$
sdf/inactives_sanitized.sdf:96
                    3D
 Schrodinger Suite 2020-1.
 78 79  0  0  1  0            999 V2000
    1.6024   -2.5932   -1.2109 C   0  0  0  0  0  0
    2.2797   -1.2311   -0.7297 C   0  0  0  0  0  0
   -0.4315    0.9641    0.2378 C   0  0  0  0  0  0
    2.1005   -3.0222   -2.3865 N   0  0  0  0  0  0
    0.2199   -0.2387    0.0022 N   0  0  0  0  0  0
    1.6209   -0.4480    0.4066 C   0  0  1  0  0  0
   -1.7074    0.8485   -0.1917 O   0  0  0  0  0  0
    1.6727   -4.2267   -3.1093 C   0  0  1  0  0  0
    3.3199   -0.8393   -1.2660 O   0  0  0  0  0  0
    0.7140   -3.1463   -0.5609 O   0  0  0  0  0  0
   -3.9981    1.3769    0.4768 C   0  0  0  0  0  0
   -2.6519    1.9247   -0.1139 C   0  0  2  0  0  0
    0.0528    1.9757    0.7508 O   0  0  0  0  0  0
    1.9533   -4.1749   -4.6172 C   0  0  0  0  0  0
   -0.3353    4.6817   -3.7898 C   0  0  0  0  0  0
   -1.4615    3.2783   -1.9928 C   0  0  0  0  0  0
    1.7851   -1.1657    1.7746 C   0  0  0  0  0  0
   -2.7619    2.6077   -1.5070 C   0  0  0  0  0  0
   -4.6093    0.2690   -0.4173 C   0  0  0  0  0  0
   -5.0330    2.5186    0.6337 C   0  0  0  0  0  0
   -3.7377    0.7874    1.8868 C   0  0  0  0  0  0
    2.2456   -5.5090   -2.4722 C   0  0  0  0  0  0
   -1.6306    4.0337   -3.3226 C   0  0  0  0  0  0
    1.2008   -4.9907   -5.4706 C   0  0  0  0  0  0
    2.9139   -3.3112   -5.1641 C   0  0  0  0  0  0
   -0.0313    5.9905   -3.4050 C   0  0  0  0  0  0
    0.5552    3.9618   -4.5913 C   0  0  0  0  0  0
    1.2385   -0.3586    2.9697 C   0  0  0  0  0  0
    1.5195   -1.0255    4.3272 C   0  0  0  0  0  0
    0.9607   -0.2252    5.5118 C   0  0  0  0  0  0
    3.1231   -3.2753   -6.5402 C   0  0  0  0  0  0
    1.4107   -4.9554   -6.8464 C   0  0  0  0  0  0
    1.7462    4.5506   -5.0083 C   0  0  0  0  0  0
    1.1601    6.5784   -3.8219 C   0  0  0  0  0  0
    2.3713   -4.0976   -7.3753 C   0  0  0  0  0  0
    2.0432    5.8557   -4.6215 C   0  0  0  0  0  0
    2.8292   -2.4764   -2.8234 H   0  0  0  0  0  0
   -0.3247   -1.0449   -0.2680 H   0  0  0  0  0  0
    2.1369    0.5141    0.4671 H   0  0  0  0  0  0
    0.5833   -4.2651   -3.0247 H   0  0  0  0  0  0
   -2.2985    2.6805    0.5910 H   0  0  0  0  0  0
   -1.1038    3.9684   -1.2269 H   0  0  0  0  0  0
   -0.6834    2.5242   -2.1160 H   0  0  0  0  0  0
    1.2832   -2.1340    1.7621 H   0  0  0  0  0  0
    2.8440   -1.3671    1.9484 H   0  0  0  0  0  0
   -3.5342    3.3753   -1.4769 H   0  0  0  0  0  0
   -3.0840    1.8801   -2.2528 H   0  0  0  0  0  0
   -5.5217   -0.1381    0.0210 H   0  0  0  0  0  0
   -3.9210   -0.5656   -0.5562 H   0  0  0  0  0  0
   -4.8723    0.6428   -1.4071 H   0  0  0  0  0  0
   -5.3867    2.8900   -0.3283 H   0  0  0  0  0  0
   -4.6166    3.3659    1.1804 H   0  0  0  0  0  0
   -5.9178    2.1855    1.1783 H   0  0  0  0  0  0
   -4.6613    0.4528    2.3618 H   0  0  0  0  0  0
   -3.2802    1.5231    2.5499 H   0  0  0  0  0  0
   -3.0706   -0.0750    1.8519 H   0  0  0  0  0  0
    1.8594   -6.4041   -2.9614 H   0  0  0  0  0  0
    1.9831   -5.5833   -1.4163 H   0  0  0  0  0  0
    3.3337   -5.5353   -2.5438 H   0  0  0  0  0  0
   -2.4021    4.8000   -3.2274 H   0  0  0  0  0  0
   -1.9907    3.3557   -4.0983 H   0  0  0  0  0  0
    0.4502   -5.6554   -5.0676 H   0  0  0  0  0  0
    3.5082   -2.6675   -4.5324 H   0  0  0  0  0  0
   -0.7134    6.5499   -2.7812 H   0  0  0  0  0  0
    0.3281    2.9478   -4.8873 H   0  0  0  0  0  0
    1.6767    0.6406    2.9637 H   0  0  0  0  0  0
    0.1617   -0.2254    2.8587 H   0  0  0  0  0  0
    1.0902   -2.0283    4.3392 H   0  0  0  0  0  0
    2.5951   -1.1516    4.4584 H   0  0  0  0  0  0
    1.1792   -0.7239    6.4565 H   0  0  0  0  0  0
   -0.1217   -0.1135    5.4393 H   0  0  0  0  0  0
    1.3977    0.7729    5.5565 H   0  0  0  0  0  0
    3.8656   -2.6116   -6.9581 H   0  0  0  0  0  0
    0.8297   -5.5887   -7.5005 H   0  0  0  0  0  0
    2.4376    3.9972   -5.6266 H   0  0  0  0  0  0
    1.3992    7.5889   -3.5249 H   0  0  0  0  0  0
    2.5335   -4.0689   -8.4427 H   0  0  0  0  0  0
    2.9679    6.3117   -4.9438 H   0  0  0  0  0  0
  1  2  1  0  0  0
  1  4  1  0  0  0
  1 10  2  0  0  0
  2  6  1  0  0  0
  2  9  2  0  0  0
  3  5  1  0  0  0
  3  7  1  0  0  0
  3 13  2  0  0  0
  4  8  1  0  0  0
  4 37  1  0  0  0
  5  6  1  0  0  0
  5 38  1  0  0  0
  6 17  1  0  0  0
  6 39  1  0  0  0
  7 12  1  0  0  0
  8 14  1  0  0  0
  8 22  1  0  0  0
  8 40  1  0  0  0
 11 12  1  0  0  0
 11 19  1  0  0  0
 11 20  1  0  0  0
 11 21  1  0  0  0
 12 18  1  0  0  0
 12 41  1  0  0  0
 14 24  2  0  0  0
 14 25  1  0  0  0
 15 23  1  0  0  0
 15 26  2  0  0  0
 15 27  1  0  0  0
 16 18  1  0  0  0
 16 23  1  0  0  0
 16 42  1  0  0  0
 16 43  1  0  0  0
 17 28  1  0  0  0
 17 44  1  0  0  0
 17 45  1  0  0  0
 18 46  1  0  0  0
 18 47  1  0  0  0
 19 48  1  0  0  0
 19 49  1  0  0  0
 19 50  1  0  0  0
 20 51  1  0  0  0
 20 52  1  0  0  0
 20 53  1  0  0  0
 21 54  1  0  0  0
 21 55  1  0  0  0
 21 56  1  0  0  0
 22 57  1  0  0  0
 22 58  1  0  0  0
 22 59  1  0  0  0
 23 60  1  0  0  0
 23 61  1  0  0  0
 24 32  1  0  0  0
 24 62  1  0  0  0
 25 31  2  0  0  0
 25 63  1  0  0  0
 26 34  1  0  0  0
 26 64  1  0  0  0
 27 33  2  0  0  0
 27 65  1  0  0  0
 28 29  1  0  0  0
 28 66  1  0  0  0
 28 67  1  0  0  0
 29 30  1  0  0  0
 29 68  1  0  0  0
 29 69  1  0  0  0
 30 70  1  0  0  0
 30 71  1  0  0  0
 30 72  1  0  0  0
 31 35  1  0  0  0
 31 73  1  0  0  0
 32 35  2  0  0  0
 32 74  1  0  0  0
 33 36  1  0  0  0
 33 75  1  0  0  0
 34 36  2  0  0  0
 34 76  1  0  0  0
 35 77  1  0  0  0
 36 78  1  0  0  0
M  END
> <chembl_id>
CHEMBL163240

> <chembl_pref_name>
None

> <i_m_ct_stereo_status>
1

> <s_m_source_file>
sdf/inactives_sanitized.sdf

> <i_m_source_file_index>
96

> <i_lp_mmshare_version>
49012

> <i_f3d_flags>
0

> <s_epik_input>
W2NIXTFbY0hdW2NIXVtjSF1bY0hdYzFbQ0BASF0oW0NIM10pW05IXUMoPU8pQyg9TylbQ0BIXShbQ0gyXVtDSDJdW0NIMl1bQ0gzXSlbTkhdQyg9TylPW0NASF0oQyhbQ0gzXSkoW0NIM10pW0NIM10pW0NIMl1bQ0gyXVtDSDJdYzJbY0hdW2NIXVtjSF1bY0hdW2NIXTI=

> <s_epik_cmdline>
J2VwaWtfcHl0aG9uJywgJy1waHQnLCAnMC41JywgJy1waCcsICc3LjUnLCAnLW50JywgJy1tYScsICcyMDAnLCAnLWltYWUnLCAnPGluZmlsZS5tYWU+JywgJy1vbWFlJywgJzxvdXRmaWxlLm1hZT4n

> <r_lp_tautomer_probability>
1

> <r_epik_Ionization_Penalty>
  0.0000

> <r_epik_Ionization_Penalty_Charging>
  0.0000

> <r_epik_Ionization_Penalty_Neutral>
  0.0000

> <r_epik_State_Penalty>
 -0.0000

> <r_epik_Charging_Adjusted_Penalty>
0

> <i_epik_Tot_Q>
0

> <i_epik_Tot_abs_Q>
0

> <s_epik_Chemistry_Notes>
This compound has an ester and may undergo hydrolysis at high or low pH.

> <s_lp_Force_Field>
OPLS3e

> <r_lp_Energy>
42.351859

> <b_lp_Chiralities_Consistent>
1

> <s_lp_Variant>
sdf/inactives_sanitized.sdf:96-1

$$$$
sdf/inactives_sanitized.sdf:97
                    3D
 Schrodinger Suite 2020-1.
 68 70  0  0  1  0            999 V2000
   -2.8577    0.6628    1.1265 N   0  0  1  0  0  0
   -0.5854    0.6683    0.0353 C   0  0  0  0  0  0
    0.4917   -0.1415   -0.0270 N   0  0  0  0  0  0
   -1.9676   -0.0358    0.1718 C   0  0  2  0  0  0
   -2.4610    0.6407    2.5412 C   0  0  0  0  0  0
    2.6245    1.0116    0.7652 C   0  0  0  0  0  0
   -3.5555    0.0853    3.4861 C   0  0  0  0  0  0
    2.1310    1.5500    1.9001 C   0  0  0  0  0  0
    1.8848    0.2361   -0.3345 C   0  0  2  0  0  0
   -0.5021    1.8945   -0.0621 O   0  0  0  0  0  0
    2.9146    2.3249    2.8950 C   0  0  0  0  0  0
   -4.6593   -0.2323    3.0324 O   0  0  0  0  0  0
   -3.2368    0.0007    4.9500 C   0  0  0  0  0  0
    2.5277    2.3806    4.2498 C   0  0  0  0  0  0
    2.0631    0.8390   -1.7747 C   0  0  2  0  0  0
   -3.5306    1.8930    0.6878 C   0  0  0  0  0  0
   -2.6159   -0.1697   -1.2374 C   0  0  0  0  0  0
    4.0716    3.0161    2.4996 C   0  0  0  0  0  0
    1.2901    1.6547    4.7565 C   0  0  0  0  0  0
   -1.9310    0.1783    5.4291 C   0  0  0  0  0  0
   -4.2619   -0.2858    5.8643 C   0  0  0  0  0  0
    3.2931    3.1103    5.1668 C   0  0  0  0  0  0
    1.4267   -0.0556   -2.8786 C   0  0  0  0  0  0
    3.5394    1.1585   -2.1186 C   0  0  0  0  0  0
   -4.2451    1.6867   -0.6612 C   0  0  0  0  0  0
    1.3108    0.6003   -4.2654 C   0  0  0  0  0  0
   -3.3128    1.1114   -1.7363 C   0  0  0  0  0  0
    4.4378    3.7878    4.7547 C   0  0  0  0  0  0
   -1.6578    0.0855    6.7914 C   0  0  0  0  0  0
   -3.9889   -0.3792    7.2268 C   0  0  0  0  0  0
    4.8265    3.7413    3.4196 C   0  0  0  0  0  0
   -2.6881   -0.1915    7.6851 C   0  0  0  0  0  0
    0.3470   -1.1206    0.1717 H   0  0  0  0  0  0
   -1.7601   -1.0380    0.5539 H   0  0  0  0  0  0
   -1.5631    0.0326    2.6558 H   0  0  0  0  0  0
   -2.1939    1.6484    2.8625 H   0  0  0  0  0  0
    3.6829    1.1178    0.5852 H   0  0  0  0  0  0
    1.0774    1.4476    2.1079 H   0  0  0  0  0  0
    2.3985   -0.7264   -0.3462 H   0  0  0  0  0  0
    1.5336    1.7931   -1.7911 H   0  0  0  0  0  0
   -4.2855    2.1518    1.4316 H   0  0  0  0  0  0
   -2.8301    2.7283    0.6648 H   0  0  0  0  0  0
   -1.8827   -0.4901   -1.9794 H   0  0  0  0  0  0
   -3.3373   -0.9875   -1.2071 H   0  0  0  0  0  0
    4.3949    3.0092    1.4692 H   0  0  0  0  0  0
    1.2003    1.6917    5.8429 H   0  0  0  0  0  0
    1.3219    0.6038    4.4662 H   0  0  0  0  0  0
    0.3941    2.0960    4.3187 H   0  0  0  0  0  0
   -1.1116    0.3809    4.7593 H   0  0  0  0  0  0
   -5.2794   -0.4358    5.5314 H   0  0  0  0  0  0
    3.0027    3.1558    6.2064 H   0  0  0  0  0  0
    1.9889   -0.9866   -2.9654 H   0  0  0  0  0  0
    0.4198   -0.3528   -2.5901 H   0  0  0  0  0  0
    4.1643    0.2669   -2.0569 H   0  0  0  0  0  0
    3.9597    1.9099   -1.4508 H   0  0  0  0  0  0
    3.6478    1.5679   -3.1221 H   0  0  0  0  0  0
   -5.1254    1.0574   -0.5217 H   0  0  0  0  0  0
   -4.6350    2.6457   -1.0043 H   0  0  0  0  0  0
    0.7554   -0.0426   -4.9488 H   0  0  0  0  0  0
    2.2853    0.7796   -4.7182 H   0  0  0  0  0  0
    0.7820    1.5524   -4.2091 H   0  0  0  0  0  0
   -3.8723    0.9042   -2.6492 H   0  0  0  0  0  0
   -2.5614    1.8566   -2.0017 H   0  0  0  0  0  0
    5.0214    4.3491    5.4695 H   0  0  0  0  0  0
   -0.6493    0.2249    7.1524 H   0  0  0  0  0  0
   -4.7834   -0.5975    7.9251 H   0  0  0  0  0  0
    5.7119    4.2685    3.0960 H   0  0  0  0  0  0
   -2.4765   -0.2649    8.7419 H   0  0  0  0  0  0
  1  4  1  0  0  0
  1  5  1  0  0  0
  1 16  1  0  0  0
  2  4  1  0  0  0
  2  3  1  0  0  0
  2 10  2  0  0  0
  3  9  1  0  0  0
  3 33  1  0  0  0
  4 17  1  0  0  0
  4 34  1  0  0  0
  5  7  1  0  0  0
  5 35  1  0  0  0
  5 36  1  0  0  0
  6  9  1  0  0  0
  6  8  2  0  0  0
  6 37  1  0  0  0
  7 12  2  0  0  0
  7 13  1  0  0  0
  8 11  1  0  0  0
  8 38  1  0  0  0
  9 15  1  0  0  0
  9 39  1  0  0  0
 11 14  2  0  0  0
 11 18  1  0  0  0
 13 20  2  0  0  0
 13 21  1  0  0  0
 14 19  1  0  0  0
 14 22  1  0  0  0
 15 23  1  0  0  0
 15 24  1  0  0  0
 15 40  1  0  0  0
 16 25  1  0  0  0
 16 41  1  0  0  0
 16 42  1  0  0  0
 17 27  1  0  0  0
 17 43  1  0  0  0
 17 44  1  0  0  0
 18 31  2  0  0  0
 18 45  1  0  0  0
 19 46  1  0  0  0
 19 47  1  0  0  0
 19 48  1  0  0  0
 20 29  1  0  0  0
 20 49  1  0  0  0
 21 30  2  0  0  0
 21 50  1  0  0  0
 22 28  2  0  0  0
 22 51  1  0  0  0
 23 26  1  0  0  0
 23 52  1  0  0  0
 23 53  1  0  0  0
 24 54  1  0  0  0
 24 55  1  0  0  0
 24 56  1  0  0  0
 25 27  1  0  0  0
 25 57  1  0  0  0
 25 58  1  0  0  0
 26 59  1  0  0  0
 26 60  1  0  0  0
 26 61  1  0  0  0
 27 62  1  0  0  0
 27 63  1  0  0  0
 28 31  1  0  0  0
 28 64  1  0  0  0
 29 32  2  0  0  0
 29 65  1  0  0  0
 30 32  1  0  0  0
 30 66  1  0  0  0
 31 67  1  0  0  0
 32 68  1  0  0  0
M  END
> <chembl_id>
CHEMBL99628

> <chembl_pref_name>
None

> <i_m_ct_stereo_status>
1

> <s_m_source_file>
sdf/inactives_sanitized.sdf

> <i_m_source_file_index>
97

> <i_lp_mmshare_version>
49012

> <i_f3d_flags>
0

> <s_epik_input>
W2NIXTFbY0hdW2NIXVtjSF1bY0hdYzFDKD1PKVtDSDJdTjJbQ0BASF0oW0NIMl1bQ0gyXVtDSDJdW0NIMl0yKUMoPU8pW05IXVtDQEBIXShbQ0BASF0oW0NIM10pW0NIMl1bQ0gzXSkvW0NIXT1bQ0hdL2MzYyhbQ0gzXSlbY0hdW2NIXVtjSF1bY0hdMw==

> <s_epik_cmdline>
J2VwaWtfcHl0aG9uJywgJy1waHQnLCAnMC41JywgJy1waCcsICc3LjUnLCAnLW50JywgJy1tYScsICcyMDAnLCAnLWltYWUnLCAnPGluZmlsZS5tYWU+JywgJy1vbWFlJywgJzxvdXRmaWxlLm1hZT4n

> <r_lp_tautomer_probability>
0.99990000499975

> <r_epik_Ionization_Penalty>
  0.0202

> <r_epik_Ionization_Penalty_Charging>
  0.0000

> <r_epik_Ionization_Penalty_Neutral>
  0.0202

> <r_epik_State_Penalty>
  0.0162

> <r_epik_Charging_Adjusted_Penalty>
0.0161663335032028

> <i_epik_Tot_Q>
0

> <i_epik_Tot_abs_Q>
0

> <s_lp_Force_Field>
OPLS3e

> <r_lp_Energy>
38.930727

> <b_lp_Chiralities_Consistent>
1

> <s_lp_Variant>
sdf/inactives_sanitized.sdf:97-1

$$$$
sdf/inactives_sanitized.sdf:98
                    3D
 Schrodinger Suite 2020-1.
 60 63  0  0  1  0            999 V2000
    3.3535    1.0709    1.5726 C   0  0  0  0  0  0
    4.2265    1.4840    0.4012 C   0  0  0  0  0  0
    3.9540    2.4594    1.5160 C   0  0  0  0  0  0
   -2.4690   -3.2342    1.4339 S   0  0  0  0  0  0
   -3.6478   -2.3891    1.2116 O   0  0  0  0  0  0
   -2.4147   -4.5849    0.8627 O   0  0  0  0  0  0
   -0.9095   -2.2927    0.8967 C   0  0  2  0  0  0
   -0.8232   -0.8961    1.5406 C   0  0  0  0  0  0
   -0.1940    0.0240    0.4748 C   0  0  2  0  0  0
   -0.7021   -0.5600   -0.8787 C   0  0  1  0  0  0
   -0.8271   -2.0899   -0.6305 C   0  0  0  0  0  0
    1.3523   -0.0162    0.5871 C   0  0  0  0  0  0
   -2.0581    0.1072   -1.2658 C   0  0  0  0  0  0
   -3.1096   -0.4835   -1.0089 O   0  0  0  0  0  0
   -2.0599    1.3263   -1.8760 N   0  0  0  0  0  0
    1.9161    0.9358    1.3513 N   0  0  0  0  0  0
    2.0213   -0.8247   -0.0592 O   0  0  0  0  0  0
    3.9267    0.0974    2.5193 C   0  0  0  0  0  0
    4.3761   -0.6670    3.2627 N   0  0  0  0  0  0
   -2.2507   -3.4010    3.2042 C   0  0  0  0  0  0
   -1.4560   -4.4351    3.7045 C   0  0  0  0  0  0
   -1.2692   -4.5610    5.0785 C   0  0  0  0  0  0
   -1.8769   -3.6532    5.9438 C   0  0  0  0  0  0
   -2.6699   -2.6199    5.4481 C   0  0  0  0  0  0
   -2.8576   -2.4919    4.0745 C   0  0  0  0  0  0
   -3.3232    1.9680   -2.2967 C   0  0  0  0  0  0
   -3.2938    2.1120   -3.8357 C   0  0  0  0  0  0
   -2.0426    2.9103   -4.2629 N   0  3  0  0  0  0
   -0.7661    2.2154   -3.7436 C   0  0  0  0  0  0
   -0.8446    2.0971   -2.2068 C   0  0  0  0  0  0
   -1.9918    3.0504   -5.7969 C   0  0  0  0  0  0
    5.2260    1.0566    0.3132 H   0  0  0  0  0  0
    3.7646    1.6628   -0.5704 H   0  0  0  0  0  0
    4.7651    2.7092    2.2008 H   0  0  0  0  0  0
    3.3050    3.3118    1.3123 H   0  0  0  0  0  0
   -0.0737   -2.9094    1.2305 H   0  0  0  0  0  0
   -1.8184   -0.5094    1.7655 H   0  0  0  0  0  0
   -0.2865   -0.9062    2.4915 H   0  0  0  0  0  0
   -0.4698    1.0758    0.5864 H   0  0  0  0  0  0
   -0.0274   -0.3774   -1.7163 H   0  0  0  0  0  0
   -1.6629   -2.5494   -1.1611 H   0  0  0  0  0  0
    0.0706   -2.5769   -1.0145 H   0  0  0  0  0  0
    1.3182    1.5156    1.9219 H   0  0  0  0  0  0
   -0.9806   -5.1363    3.0342 H   0  0  0  0  0  0
   -0.6548   -5.3578    5.4711 H   0  0  0  0  0  0
   -1.7313   -3.7509    7.0095 H   0  0  0  0  0  0
   -3.1359   -1.9200    6.1261 H   0  0  0  0  0  0
   -3.4690   -1.6869    3.6936 H   0  0  0  0  0  0
   -4.2068    1.4079   -1.9871 H   0  0  0  0  0  0
   -3.4100    2.9479   -1.8253 H   0  0  0  0  0  0
   -3.2816    1.1473   -4.3476 H   0  0  0  0  0  0
   -4.1521    2.6842   -4.1906 H   0  0  0  0  0  0
   -0.6735    1.2464   -4.2391 H   0  0  0  0  0  0
    0.0691    2.8479   -4.0478 H   0  0  0  0  0  0
   -0.9325    3.0900   -1.7635 H   0  0  0  0  0  0
    0.0746    1.6908   -1.7885 H   0  0  0  0  0  0
   -1.9310    2.0499   -6.2287 H   0  0  0  0  0  0
   -1.1097    3.6458   -6.0365 H   0  0  0  0  0  0
   -2.9025    3.5662   -6.1040 H   0  0  0  0  0  0
   -2.0958    3.8295   -3.8463 H   0  0  0  0  0  0
  1  2  1  0  0  0
  1  3  1  0  0  0
  1 16  1  0  0  0
  1 18  1  0  0  0
  2  3  1  0  0  0
  2 32  1  0  0  0
  2 33  1  0  0  0
  3 34  1  0  0  0
  3 35  1  0  0  0
  4  5  2  0  0  0
  4  6  2  0  0  0
  4  7  1  0  0  0
  4 20  1  0  0  0
  7  8  1  0  0  0
  7 11  1  0  0  0
  7 36  1  0  0  0
  8  9  1  0  0  0
  8 37  1  0  0  0
  8 38  1  0  0  0
  9 10  1  0  0  0
  9 12  1  0  0  0
  9 39  1  0  0  0
 10 11  1  0  0  0
 10 13  1  0  0  0
 10 40  1  0  0  0
 11 41  1  0  0  0
 11 42  1  0  0  0
 12 16  1  0  0  0
 12 17  2  0  0  0
 13 14  2  0  0  0
 13 15  1  0  0  0
 15 26  1  0  0  0
 15 30  1  0  0  0
 16 43  1  0  0  0
 18 19  3  0  0  0
 20 21  2  0  0  0
 20 25  1  0  0  0
 21 22  1  0  0  0
 21 44  1  0  0  0
 22 23  2  0  0  0
 22 45  1  0  0  0
 23 24  1  0  0  0
 23 46  1  0  0  0
 24 25  2  0  0  0
 24 47  1  0  0  0
 25 48  1  0  0  0
 26 27  1  0  0  0
 26 49  1  0  0  0
 26 50  1  0  0  0
 27 28  1  0  0  0
 27 51  1  0  0  0
 27 52  1  0  0  0
 28 29  1  0  0  0
 28 31  1  0  0  0
 28 60  1  0  0  0
 29 30  1  0  0  0
 29 53  1  0  0  0
 29 54  1  0  0  0
 30 55  1  0  0  0
 30 56  1  0  0  0
 31 57  1  0  0  0
 31 58  1  0  0  0
 31 59  1  0  0  0
M  CHG  1  28   1
M  END
> <chembl_id>
CHEMBL3093827

> <chembl_pref_name>
None

> <i_m_ct_stereo_status>
1

> <s_m_source_file>
sdf/inactives_sanitized.sdf

> <i_m_source_file_index>
98

> <i_lp_mmshare_version>
49012

> <i_f3d_flags>
0

> <s_epik_input>
W0NIMl0xW0NIMl1OKFtDSDNdKVtDSDJdW0NIMl1OMUMoPU8pW0NASF0oW0NIMl0yKVtDQEhdKEMoPU8pW05IXUMzKEMjTilbQ0gyXVtDSDJdMylbQ0gyXVtDQEhdMlMoPU8pKD1PKWM0W2NIXVtjSF1bY0hdW2NIXVtjSF00

> <s_epik_cmdline>
J2VwaWtfcHl0aG9uJywgJy1waHQnLCAnMC41JywgJy1waCcsICc3LjUnLCAnLW50JywgJy1tYScsICcyMDAnLCAnLWltYWUnLCAnPGluZmlsZS5tYWU+JywgJy1vbWFlJywgJzxvdXRmaWxlLm1hZT4n

> <r_epik_Ionization_Penalty>
  0.3320

> <r_epik_Ionization_Penalty_Charging>
  0.3320

> <r_epik_Ionization_Penalty_Neutral>
  0.0000

> <r_epik_State_Penalty>
  0.3271

> <r_epik_Charging_Adjusted_Penalty>
0.659069608919558

> <i_epik_Tot_Q>
1

> <i_epik_Tot_abs_Q>
1

> <s_lp_Force_Field>
OPLS3e

> <r_lp_Energy>
36.501306

> <b_lp_Chiralities_Consistent>
1

> <s_lp_Variant>
sdf/inactives_sanitized.sdf:98-1

$$$$
sdf/inactives_sanitized.sdf:98
                    3D
 Schrodinger Suite 2020-1.
 59 62  0  0  1  0            999 V2000
    3.5122    1.1230    1.1373 C   0  0  0  0  0  0
    4.0509    1.5482    2.4869 C   0  0  0  0  0  0
    4.3953    0.1867    1.9431 C   0  0  0  0  0  0
   -2.2134   -3.4897    1.4234 S   0  0  0  0  0  0
   -2.2124   -3.6616    2.8807 O   0  0  0  0  0  0
   -3.3233   -2.7891    0.7670 O   0  0  0  0  0  0
   -0.5746   -2.6689    0.9176 C   0  0  2  0  0  0
   -0.4842   -1.2327    1.4733 C   0  0  0  0  0  0
    0.0396   -0.3470    0.3203 C   0  0  2  0  0  0
   -0.4561   -1.0623   -0.9776 C   0  0  1  0  0  0
   -0.4165   -2.5667   -0.6141 C   0  0  0  0  0  0
    1.5871   -0.2551    0.3895 C   0  0  0  0  0  0
   -1.9040   -0.6459   -1.3896 C   0  0  0  0  0  0
   -2.5855   -0.0048   -0.5835 O   0  0  0  0  0  0
   -2.3415   -0.8907   -2.6584 N   0  0  0  0  0  0
    2.0884    0.8144    1.0324 N   0  0  0  0  0  0
    2.3057   -1.0726   -0.1888 O   0  0  0  0  0  0
    4.1052    1.7165   -0.0743 C   0  0  0  0  0  0
    4.5702    2.1825   -1.0258 N   0  0  0  0  0  0
   -2.1051   -5.1275    0.7033 C   0  0  0  0  0  0
   -2.7784   -5.4195   -0.4863 C   0  0  0  0  0  0
   -2.6794   -6.6924   -1.0415 C   0  0  0  0  0  0
   -1.9098   -7.6651   -0.4063 C   0  0  0  0  0  0
   -1.2372   -7.3773    0.7798 C   0  0  0  0  0  0
   -1.3344   -6.1049    1.3368 C   0  0  0  0  0  0
   -1.6695   -1.8689   -3.5444 C   0  0  0  0  0  0
   -1.7608   -1.3863   -5.0100 C   0  0  0  0  0  0
   -3.1368   -1.0713   -5.3924 N   0  0  0  0  0  0
   -3.6759   -0.0102   -4.5429 C   0  0  0  0  0  0
   -3.6914   -0.4266   -3.0546 C   0  0  0  0  0  0
   -3.1898   -0.6694   -6.7947 C   0  0  0  0  0  0
    4.8324    2.3076    2.5249 H   0  0  0  0  0  0
    3.3692    1.6098    3.3360 H   0  0  0  0  0  0
    5.4148    0.0023    1.6029 H   0  0  0  0  0  0
    3.9506   -0.6896    2.4163 H   0  0  0  0  0  0
    0.2112   -3.2977    1.3378 H   0  0  0  0  0  0
   -1.4707   -0.8613    1.7541 H   0  0  0  0  0  0
    0.1266   -1.1784    2.3768 H   0  0  0  0  0  0
   -0.3173    0.6852    0.3553 H   0  0  0  0  0  0
    0.1789   -0.7891   -1.8224 H   0  0  0  0  0  0
   -1.1477   -3.1696   -1.1531 H   0  0  0  0  0  0
    0.5529   -2.9694   -0.9108 H   0  0  0  0  0  0
    1.4491    1.5237    1.3607 H   0  0  0  0  0  0
   -3.3729   -4.6674   -0.9842 H   0  0  0  0  0  0
   -3.1962   -6.9243   -1.9611 H   0  0  0  0  0  0
   -1.8337   -8.6521   -0.8381 H   0  0  0  0  0  0
   -0.6426   -8.1376    1.2646 H   0  0  0  0  0  0
   -0.8106   -5.8809    2.2547 H   0  0  0  0  0  0
   -0.6154   -2.0232   -3.3217 H   0  0  0  0  0  0
   -2.1928   -2.8239   -3.4804 H   0  0  0  0  0  0
   -1.1565   -0.4846   -5.1310 H   0  0  0  0  0  0
   -1.3560   -2.1510   -5.6747 H   0  0  0  0  0  0
   -3.0491    0.8762   -4.6632 H   0  0  0  0  0  0
   -4.6856    0.2502   -4.8636 H   0  0  0  0  0  0
   -4.4027   -1.2461   -2.9436 H   0  0  0  0  0  0
   -4.0337    0.4324   -2.4754 H   0  0  0  0  0  0
   -4.2162   -0.4550   -7.0954 H   0  0  0  0  0  0
   -2.8231   -1.4704   -7.4381 H   0  0  0  0  0  0
   -2.5872    0.2210   -6.9829 H   0  0  0  0  0  0
  1  2  1  0  0  0
  1  3  1  0  0  0
  1 16  1  0  0  0
  1 18  1  0  0  0
  2  3  1  0  0  0
  2 32  1  0  0  0
  2 33  1  0  0  0
  3 34  1  0  0  0
  3 35  1  0  0  0
  4  5  2  0  0  0
  4  6  2  0  0  0
  4  7  1  0  0  0
  4 20  1  0  0  0
  7  8  1  0  0  0
  7 11  1  0  0  0
  7 36  1  0  0  0
  8  9  1  0  0  0
  8 37  1  0  0  0
  8 38  1  0  0  0
  9 10  1  0  0  0
  9 12  1  0  0  0
  9 39  1  0  0  0
 10 11  1  0  0  0
 10 13  1  0  0  0
 10 40  1  0  0  0
 11 41  1  0  0  0
 11 42  1  0  0  0
 12 16  1  0  0  0
 12 17  2  0  0  0
 13 14  2  0  0  0
 13 15  1  0  0  0
 15 26  1  0  0  0
 15 30  1  0  0  0
 16 43  1  0  0  0
 18 19  3  0  0  0
 20 21  2  0  0  0
 20 25  1  0  0  0
 21 22  1  0  0  0
 21 44  1  0  0  0
 22 23  2  0  0  0
 22 45  1  0  0  0
 23 24  1  0  0  0
 23 46  1  0  0  0
 24 25  2  0  0  0
 24 47  1  0  0  0
 25 48  1  0  0  0
 26 27  1  0  0  0
 26 49  1  0  0  0
 26 50  1  0  0  0
 27 28  1  0  0  0
 27 51  1  0  0  0
 27 52  1  0  0  0
 28 29  1  0  0  0
 28 31  1  0  0  0
 29 30  1  0  0  0
 29 53  1  0  0  0
 29 54  1  0  0  0
 30 55  1  0  0  0
 30 56  1  0  0  0
 31 57  1  0  0  0
 31 58  1  0  0  0
 31 59  1  0  0  0
M  END
> <chembl_id>
CHEMBL3093827

> <chembl_pref_name>
None

> <i_m_ct_stereo_status>
1

> <s_m_source_file>
sdf/inactives_sanitized.sdf

> <i_m_source_file_index>
98

> <i_lp_mmshare_version>
49012

> <i_f3d_flags>
0

> <s_epik_input>
W0NIMl0xW0NIMl1OKFtDSDNdKVtDSDJdW0NIMl1OMUMoPU8pW0NASF0oW0NIMl0yKVtDQEhdKEMoPU8pW05IXUMzKEMjTilbQ0gyXVtDSDJdMylbQ0gyXVtDQEhdMlMoPU8pKD1PKWM0W2NIXVtjSF1bY0hdW2NIXVtjSF00

> <s_epik_cmdline>
J2VwaWtfcHl0aG9uJywgJy1waHQnLCAnMC41JywgJy1waCcsICc3LjUnLCAnLW50JywgJy1tYScsICcyMDAnLCAnLWltYWUnLCAnPGluZmlsZS5tYWU+JywgJy1vbWFlJywgJzxvdXRmaWxlLm1hZT4n

> <r_epik_Ionization_Penalty>
  0.5015

> <r_epik_Ionization_Penalty_Charging>
  0.0000

> <r_epik_Ionization_Penalty_Neutral>
  0.5015

> <r_epik_State_Penalty>
  0.5080

> <r_epik_Charging_Adjusted_Penalty>
0.508004784396297

> <i_epik_Tot_Q>
0

> <i_epik_Tot_abs_Q>
0

> <s_lp_Force_Field>
OPLS3e

> <r_lp_Energy>
41.279784

> <b_lp_Chiralities_Consistent>
1

> <s_lp_Variant>
sdf/inactives_sanitized.sdf:98-2

$$$$
sdf/inactives_sanitized.sdf:99
                    3D
 Schrodinger Suite 2020-1.
 12 12  0  0  1  0            999 V2000
    0.0141   -0.0009    0.0042 C   0  0  0  0  0  0
   -1.1413    0.0500   -0.0307 N   0  0  0  0  0  0
    1.3639   -0.0714    0.0941 N   0  0  0  0  0  0
    3.1816   -0.7442    0.9653 C   0  0  0  0  0  0
    2.1495   -1.2997    0.0000 C   0  0  0  0  0  0
    2.1507    0.3315    1.2575 C   0  0  0  0  0  0
    4.0941   -0.3790    0.4909 H   0  0  0  0  0  0
    3.4159   -1.3946    1.8088 H   0  0  0  0  0  0
    1.6107   -2.1703    0.3782 H   0  0  0  0  0  0
    2.5104   -1.4984   -1.0097 H   0  0  0  0  0  0
    1.6122    0.1879    2.1961 H   0  0  0  0  0  0
    2.5122    1.3584    1.1925 H   0  0  0  0  0  0
  1  2  3  0  0  0
  1  3  1  0  0  0
  3  5  1  0  0  0
  3  6  1  0  0  0
  4  6  1  0  0  0
  4  5  1  0  0  0
  4  7  1  0  0  0
  4  8  1  0  0  0
  5  9  1  0  0  0
  5 10  1  0  0  0
  6 11  1  0  0  0
  6 12  1  0  0  0
M  END
> <chembl_id>
CHEMBL8123

> <chembl_pref_name>
None

> <s_m_source_file>
sdf/inactives_sanitized.sdf

> <i_m_source_file_index>
99

> <i_lp_mmshare_version>
49012

> <i_m_ct_stereo_status>
1

> <i_f3d_flags>
0

> <s_epik_input>
TiNDTjFbQ0gyXVtDSDJdW0NIMl0x

> <s_epik_cmdline>
J2VwaWtfcHl0aG9uJywgJy1waHQnLCAnMC41JywgJy1waCcsICc3LjUnLCAnLW50JywgJy1tYScsICcyMDAnLCAnLWltYWUnLCAnPGluZmlsZS5tYWU+JywgJy1vbWFlJywgJzxvdXRmaWxlLm1hZT4n

> <r_lp_tautomer_probability>
1

> <r_epik_Ionization_Penalty>
  0.0000

> <r_epik_Ionization_Penalty_Charging>
  0.0000

> <r_epik_Ionization_Penalty_Neutral>
  0.0000

> <r_epik_State_Penalty>
 -0.0000

> <r_epik_Charging_Adjusted_Penalty>
0

> <i_epik_Tot_Q>
0

> <i_epik_Tot_abs_Q>
0

> <s_lp_Force_Field>
OPLS3e

> <r_lp_Energy>
4.46397

> <b_lp_Chiralities_Consistent>
1

> <s_lp_Variant>
sdf/inactives_sanitized.sdf:99-1

$$$$
sdf/inactives_sanitized.sdf:100
                    3D
 Schrodinger Suite 2020-1.
 61 65  0  0  1  0            999 V2000
   -2.3270    8.1585   -3.5663 C   0  0  0  0  0  0
   -2.9079    8.3436   -2.2377 N   0  0  0  0  0  0
   -3.5804    9.4723   -1.9023 C   0  0  0  0  0  0
   -3.8186   10.4575   -2.6015 O   0  0  0  0  0  0
   -4.0144    9.3078   -0.4443 C   0  0  0  0  0  0
   -3.4771    7.9628   -0.0789 C   0  0  0  0  0  0
   -3.5348    7.2373    1.1088 C   0  0  0  0  0  0
   -2.9357    5.9771    1.1712 C   0  0  0  0  0  0
   -2.2777    5.4250    0.0576 C   0  0  0  0  0  0
   -2.2335    6.1789   -1.1276 C   0  0  0  0  0  0
   -2.8324    7.4392   -1.1802 C   0  0  0  0  0  0
   -1.6451    4.0729    0.1323 C   0  0  0  0  0  0
   -1.6409    3.2212   -0.9811 C   0  0  0  0  0  0
   -1.0547    1.9606   -0.9129 C   0  0  0  0  0  0
   -0.4595    1.5325    0.2741 C   0  0  0  0  0  0
    0.2032    0.1620    0.3480 C   0  0  0  0  0  0
    1.7379    0.2089    0.1938 C   0  0  2  0  0  0
    2.1361    0.8623   -1.0577 N   0  0  0  0  0  0
    3.3873    0.9916   -1.5357 C   0  0  0  0  0  0
    4.3689    0.5345   -0.9448 O   0  0  0  0  0  0
    3.5181    1.7711   -2.8731 C   0  0  2  0  0  0
    3.0652    3.2550   -2.7512 C   0  0  0  0  0  0
    3.3094    4.0040   -4.0928 C   0  0  0  0  0  0
    3.9680    3.0756   -5.1536 C   0  0  2  0  0  0
    3.0439    1.8446   -5.3805 C   0  0  0  0  0  0
    2.7952    1.0657   -4.0565 C   0  0  0  0  0  0
    5.3044    2.5525   -4.5530 C   0  0  0  0  0  0
    5.0295    1.7953   -3.2279 N   0  3  0  0  0  0
    2.3270   -1.1363    0.3488 C   0  0  0  0  0  0
    2.7878   -2.1908    0.4700 N   0  0  0  0  0  0
   -0.4548    2.3682    1.3902 C   0  0  0  0  0  0
   -1.0443    3.6272    1.3180 C   0  0  0  0  0  0
   -1.2760    7.8816   -3.4783 H   0  0  0  0  0  0
   -2.3846    9.0575   -4.1821 H   0  0  0  0  0  0
   -2.8452    7.3551   -4.0906 H   0  0  0  0  0  0
   -3.5803   10.1020    0.1639 H   0  0  0  0  0  0
   -5.1018    9.3476   -0.3736 H   0  0  0  0  0  0
   -4.0379    7.6329    1.9789 H   0  0  0  0  0  0
   -3.0002    5.4244    2.0970 H   0  0  0  0  0  0
   -1.7276    5.7885   -1.9982 H   0  0  0  0  0  0
   -2.1048    3.5264   -1.9077 H   0  0  0  0  0  0
   -1.0637    1.3205   -1.7833 H   0  0  0  0  0  0
   -0.0623   -0.3062    1.2976 H   0  0  0  0  0  0
   -0.2283   -0.4888   -0.4151 H   0  0  0  0  0  0
    2.1437    0.8063    1.0125 H   0  0  0  0  0  0
    1.4074    1.3899   -1.5160 H   0  0  0  0  0  0
    2.0066    3.3130   -2.4901 H   0  0  0  0  0  0
    3.6012    3.7578   -1.9435 H   0  0  0  0  0  0
    2.3652    4.3914   -4.4788 H   0  0  0  0  0  0
    3.9369    4.8804   -3.9223 H   0  0  0  0  0  0
    4.1436    3.6110   -6.0879 H   0  0  0  0  0  0
    2.0928    2.1714   -5.8041 H   0  0  0  0  0  0
    3.4834    1.1810   -6.1270 H   0  0  0  0  0  0
    1.7220    1.0046   -3.8674 H   0  0  0  0  0  0
    3.1403    0.0350   -4.1622 H   0  0  0  0  0  0
    5.8112    1.8378   -5.2029 H   0  0  0  0  0  0
    5.9981    3.3546   -4.2973 H   0  0  0  0  0  0
    5.3677    0.8467   -3.3093 H   0  0  0  0  0  0
    0.0090    2.0475    2.3118 H   0  0  0  0  0  0
   -1.0191    4.2605    2.1927 H   0  0  0  0  0  0
    5.5401    2.2400   -2.4781 H   0  0  0  0  0  0
  1  2  1  0  0  0
  1 33  1  0  0  0
  1 34  1  0  0  0
  1 35  1  0  0  0
  2  3  1  0  0  0
  2 11  1  0  0  0
  3  4  2  0  0  0
  3  5  1  0  0  0
  5  6  1  0  0  0
  5 36  1  0  0  0
  5 37  1  0  0  0
  6  7  2  0  0  0
  6 11  1  0  0  0
  7  8  1  0  0  0
  7 38  1  0  0  0
  8  9  2  0  0  0
  8 39  1  0  0  0
  9 10  1  0  0  0
  9 12  1  0  0  0
 10 11  2  0  0  0
 10 40  1  0  0  0
 12 13  2  0  0  0
 12 32  1  0  0  0
 13 14  1  0  0  0
 13 41  1  0  0  0
 14 15  2  0  0  0
 14 42  1  0  0  0
 15 16  1  0  0  0
 15 31  1  0  0  0
 16 17  1  0  0  0
 16 43  1  0  0  0
 16 44  1  0  0  0
 17 18  1  0  0  0
 17 29  1  0  0  0
 17 45  1  0  0  0
 18 19  1  0  0  0
 18 46  1  0  0  0
 19 20  2  0  0  0
 19 21  1  0  0  0
 21 22  1  0  0  0
 21 26  1  0  0  0
 21 28  1  0  0  0
 22 23  1  0  0  0
 22 47  1  0  0  0
 22 48  1  0  0  0
 23 24  1  0  0  0
 23 49  1  0  0  0
 23 50  1  0  0  0
 24 25  1  0  0  0
 24 27  1  0  0  0
 24 51  1  0  0  0
 25 26  1  0  0  0
 25 52  1  0  0  0
 25 53  1  0  0  0
 26 54  1  0  0  0
 26 55  1  0  0  0
 27 28  1  0  0  0
 27 56  1  0  0  0
 27 57  1  0  0  0
 28 58  1  0  0  0
 28 61  1  0  0  0
 29 30  3  0  0  0
 31 32  2  0  0  0
 31 59  1  0  0  0
 32 60  1  0  0  0
M  CHG  1  28   1
M  END
> <chembl_id>
CHEMBL3702568

> <chembl_pref_name>
None

> <i_m_ct_stereo_status>
1

> <s_m_source_file>
sdf/inactives_sanitized.sdf

> <i_m_source_file_index>
100

> <i_lp_mmshare_version>
49012

> <i_f3d_flags>
0

> <s_epik_input>
Tz1DKFtDSDJdMSlOKFtDSDNdKWMoYzEyKVtjSF1jKFtjSF1bY0hdMiktYzNbY0hdW2NIXWMoW2NIXVtjSF0zKVtDSDJdW0NAQEhdKEMjTilbTkhdQyg9TylbQ0BdNDVbQ0gyXVtDSDJdW0NASF0oW0NIMl1bQ0gyXTQpW0NIMl1bTkhdNQ==

> <s_epik_cmdline>
J2VwaWtfcHl0aG9uJywgJy1waHQnLCAnMC41JywgJy1waCcsICc3LjUnLCAnLW50JywgJy1tYScsICcyMDAnLCAnLWltYWUnLCAnPGluZmlsZS5tYWU+JywgJy1vbWFlJywgJzxvdXRmaWxlLm1hZT4n

> <r_epik_Ionization_Penalty>
  0.2492

> <r_epik_Ionization_Penalty_Charging>
  0.2491

> <r_epik_Ionization_Penalty_Neutral>
  0.0001

> <r_epik_State_Penalty>
  0.2404

> <r_epik_Charging_Adjusted_Penalty>
0.489493738808436

> <i_epik_Tot_Q>
1

> <i_epik_Tot_abs_Q>
1

> <s_lp_Force_Field>
OPLS3e

> <r_lp_Energy>
42.563139

> <b_lp_Chiralities_Consistent>
1

> <s_lp_Variant>
sdf/inactives_sanitized.sdf:100-1

$$$$
sdf/inactives_sanitized.sdf:100
                    3D
 Schrodinger Suite 2020-1.
 60 64  0  0  1  0            999 V2000
   -0.0531    9.0234    1.8799 C   0  0  0  0  0  0
   -1.2143    8.8951    1.0014 N   0  0  0  0  0  0
   -1.9704    9.9695    0.6674 C   0  0  0  0  0  0
   -1.8080   11.1475    0.9868 O   0  0  0  0  0  0
   -3.1071    9.4494   -0.2151 C   0  0  0  0  0  0
   -2.8420    7.9806   -0.2808 C   0  0  0  0  0  0
   -3.5182    6.9486   -0.9278 C   0  0  0  0  0  0
   -3.0390    5.6411   -0.8180 C   0  0  0  0  0  0
   -1.8875    5.3464   -0.0666 C   0  0  0  0  0  0
   -1.2241    6.4062    0.5745 C   0  0  0  0  0  0
   -1.7110    7.7100    0.4613 C   0  0  0  0  0  0
   -1.3794    3.9456    0.0451 C   0  0  0  0  0  0
   -1.4889    3.0558   -1.0322 C   0  0  0  0  0  0
   -0.9980    1.7571   -0.9371 C   0  0  0  0  0  0
   -0.3885    1.3278    0.2421 C   0  0  0  0  0  0
    0.2076   -0.0716    0.3317 C   0  0  0  0  0  0
    1.7477   -0.0976    0.1947 C   0  0  2  0  0  0
    2.2170    0.4857   -1.0659 N   0  0  0  0  0  0
    2.6604    1.7481   -1.2277 C   0  0  0  0  0  0
    2.7641    2.5298   -0.2786 O   0  0  0  0  0  0
    2.9952    2.2260   -2.6689 C   0  0  2  0  0  0
    1.9904    3.3453   -3.0932 C   0  0  0  0  0  0
    2.3716    3.9128   -4.4896 C   0  0  0  0  0  0
    3.6480    3.2118   -5.0282 C   0  0  2  0  0  0
    3.3841    1.6840   -5.1382 C   0  0  0  0  0  0
    2.9909    1.0966   -3.7524 C   0  0  0  0  0  0
    4.7458    3.3999   -3.9378 C   0  0  0  0  0  0
    4.3517    2.8119   -2.6402 N   0  0  2  0  0  0
    2.2894   -1.4580    0.3426 C   0  0  0  0  0  0
    2.7150   -2.5279    0.4586 N   0  0  0  0  0  0
   -0.2852    2.1963    1.3278 C   0  0  0  0  0  0
   -0.7759    3.4947    1.2273 C   0  0  0  0  0  0
    0.8543    9.1369    1.2867 H   0  0  0  0  0  0
    0.0566    8.1344    2.5008 H   0  0  0  0  0  0
   -0.1360    9.8823    2.5476 H   0  0  0  0  0  0
   -4.0685    9.6724    0.2483 H   0  0  0  0  0  0
   -3.0588    9.9190   -1.1981 H   0  0  0  0  0  0
   -4.4067    7.1444   -1.5095 H   0  0  0  0  0  0
   -3.5812    4.8518   -1.3176 H   0  0  0  0  0  0
   -0.3289    6.2138    1.1472 H   0  0  0  0  0  0
   -1.9376    3.3720   -1.9624 H   0  0  0  0  0  0
   -1.0742    1.0955   -1.7876 H   0  0  0  0  0  0
   -0.0880   -0.5164    1.2834 H   0  0  0  0  0  0
   -0.2445   -0.7093   -0.4301 H   0  0  0  0  0  0
    2.1783    0.4436    1.0399 H   0  0  0  0  0  0
    2.0618   -0.0703   -1.8941 H   0  0  0  0  0  0
    0.9728    2.9513   -3.1232 H   0  0  0  0  0  0
    1.9747    4.1587   -2.3643 H   0  0  0  0  0  0
    1.5464    3.7745   -5.1894 H   0  0  0  0  0  0
    2.5328    4.9901   -4.4275 H   0  0  0  0  0  0
    3.9611    3.6332   -5.9840 H   0  0  0  0  0  0
    2.5936    1.4935   -5.8656 H   0  0  0  0  0  0
    4.2715    1.1785   -5.5226 H   0  0  0  0  0  0
    2.0034    0.6368   -3.8220 H   0  0  0  0  0  0
    3.6823    0.2955   -3.4833 H   0  0  0  0  0  0
    5.6798    2.9380   -4.2596 H   0  0  0  0  0  0
    4.9578    4.4597   -3.7913 H   0  0  0  0  0  0
    5.0133    2.0809   -2.4219 H   0  0  0  0  0  0
    0.1894    1.8732    2.2429 H   0  0  0  0  0  0
   -0.6829    4.1492    2.0815 H   0  0  0  0  0  0
  1  2  1  0  0  0
  1 33  1  0  0  0
  1 34  1  0  0  0
  1 35  1  0  0  0
  2  3  1  0  0  0
  2 11  1  0  0  0
  3  4  2  0  0  0
  3  5  1  0  0  0
  5  6  1  0  0  0
  5 36  1  0  0  0
  5 37  1  0  0  0
  6  7  2  0  0  0
  6 11  1  0  0  0
  7  8  1  0  0  0
  7 38  1  0  0  0
  8  9  2  0  0  0
  8 39  1  0  0  0
  9 10  1  0  0  0
  9 12  1  0  0  0
 10 11  2  0  0  0
 10 40  1  0  0  0
 12 13  2  0  0  0
 12 32  1  0  0  0
 13 14  1  0  0  0
 13 41  1  0  0  0
 14 15  2  0  0  0
 14 42  1  0  0  0
 15 16  1  0  0  0
 15 31  1  0  0  0
 16 17  1  0  0  0
 16 43  1  0  0  0
 16 44  1  0  0  0
 17 18  1  0  0  0
 17 29  1  0  0  0
 17 45  1  0  0  0
 18 19  1  0  0  0
 18 46  1  0  0  0
 19 20  2  0  0  0
 19 21  1  0  0  0
 21 22  1  0  0  0
 21 26  1  0  0  0
 21 28  1  0  0  0
 22 23  1  0  0  0
 22 47  1  0  0  0
 22 48  1  0  0  0
 23 24  1  0  0  0
 23 49  1  0  0  0
 23 50  1  0  0  0
 24 25  1  0  0  0
 24 27  1  0  0  0
 24 51  1  0  0  0
 25 26  1  0  0  0
 25 52  1  0  0  0
 25 53  1  0  0  0
 26 54  1  0  0  0
 26 55  1  0  0  0
 27 28  1  0  0  0
 27 56  1  0  0  0
 27 57  1  0  0  0
 28 58  1  0  0  0
 29 30  3  0  0  0
 31 32  2  0  0  0
 31 59  1  0  0  0
 32 60  1  0  0  0
M  END
> <chembl_id>
CHEMBL3702568

> <chembl_pref_name>
None

> <i_m_ct_stereo_status>
1

> <s_m_source_file>
sdf/inactives_sanitized.sdf

> <i_m_source_file_index>
100

> <i_lp_mmshare_version>
49012

> <i_f3d_flags>
0

> <s_epik_input>
Tz1DKFtDSDJdMSlOKFtDSDNdKWMoYzEyKVtjSF1jKFtjSF1bY0hdMiktYzNbY0hdW2NIXWMoW2NIXVtjSF0zKVtDSDJdW0NAQEhdKEMjTilbTkhdQyg9TylbQ0BdNDVbQ0gyXVtDSDJdW0NASF0oW0NIMl1bQ0gyXTQpW0NIMl1bTkhdNQ==

> <s_epik_cmdline>
J2VwaWtfcHl0aG9uJywgJy1waHQnLCAnMC41JywgJy1waCcsICc3LjUnLCAnLW50JywgJy1tYScsICcyMDAnLCAnLWltYWUnLCAnPGluZmlsZS5tYWU+JywgJy1vbWFlJywgJzxvdXRmaWxlLm1hZT4n

> <r_epik_Ionization_Penalty>
  0.6336

> <r_epik_Ionization_Penalty_Charging>
  0.0000

> <r_epik_Ionization_Penalty_Neutral>
  0.6336

> <r_epik_State_Penalty>
  0.6506

> <r_epik_Charging_Adjusted_Penalty>
0.650608926039391

> <i_epik_Tot_Q>
0

> <i_epik_Tot_abs_Q>
0

> <s_lp_Force_Field>
OPLS3e

> <r_lp_Energy>
43.122798

> <b_lp_Chiralities_Consistent>
1

> <s_lp_Variant>
sdf/inactives_sanitized.sdf:100-2

$$$$
sdf/inactives_sanitized.sdf:101
                    3D
 Schrodinger Suite 2020-1.
 59 62  0  0  1  0            999 V2000
   -2.3404   -1.5614    6.1693 F   0  0  0  0  0  0
   -1.5626   -0.4772    6.1562 C   0  0  0  0  0  0
   -2.0158    0.3813    7.0693 F   0  0  0  0  0  0
   -0.3309   -0.8557    6.5032 F   0  0  0  0  0  0
   -1.5731    0.2002    4.7862 C   0  0  0  0  0  0
   -0.4452    0.8861    4.3248 C   0  0  0  0  0  0
   -0.4414    1.4683    3.0597 C   0  0  0  0  0  0
   -1.5673    1.3822    2.2329 C   0  0  0  0  0  0
   -1.4921    1.9599    0.8447 C   0  0  0  0  0  0
   -1.9801    3.0620    0.6063 O   0  0  0  0  0  0
   -0.8548    1.2529   -0.1077 N   0  0  0  0  0  0
   -0.3279   -0.1172   -0.0154 C   0  0  1  0  0  0
   -0.6749   -0.9514   -1.2759 C   0  0  0  0  0  0
   -2.1841   -1.0104   -1.4859 C   0  0  0  0  0  0
   -2.9662   -1.8500   -0.6885 C   0  0  0  0  0  0
   -4.3542   -1.8305   -0.8039 C   0  0  0  0  0  0
   -4.9760   -0.9639   -1.7061 C   0  0  0  0  0  0
   -6.3491   -0.9345   -1.7534 O   0  0  0  0  0  0
   -7.0108    0.1339   -1.0620 C   0  0  0  0  0  0
   -6.5057    0.4545    0.3690 C   0  0  0  0  0  0
   -5.4308    1.5628    0.4327 C   0  0  0  0  0  0
   -4.7100    1.6498    1.7878 C   0  0  0  0  0  0
   -3.8395    0.5279    1.9234 O   0  0  0  0  0  0
   -2.7220    0.7242    2.7023 C   0  0  0  0  0  0
   -2.6988    0.1139    3.9588 C   0  0  0  0  0  0
   -4.1926   -0.1608   -2.5464 C   0  0  0  0  0  0
   -4.9226    0.8875   -3.7104 Cl  0  0  0  0  0  0
   -2.8017   -0.1843   -2.4304 C   0  0  0  0  0  0
    1.1916   -0.0809    0.2335 C   0  0  0  0  0  0
    1.9218    0.5739   -0.5121 O   0  0  0  0  0  0
    1.6386   -0.8031    1.2743 N   0  0  0  0  0  0
    3.0200   -0.7832    1.7435 C   0  0  0  0  0  0
    3.6864   -2.1071    2.0527 C   0  0  0  0  0  0
    4.1067   -1.3284    0.8340 C   0  0  0  0  0  0
    3.3655    0.3855    2.5719 C   0  0  0  0  0  0
    3.6344    1.3034    3.2231 N   0  0  0  0  0  0
    0.4400    0.9629    4.9399 H   0  0  0  0  0  0
    0.4533    1.9715    2.7192 H   0  0  0  0  0  0
   -0.7745    1.6719   -1.0228 H   0  0  0  0  0  0
   -0.8009   -0.6331    0.8230 H   0  0  0  0  0  0
   -0.2003   -0.5259   -2.1627 H   0  0  0  0  0  0
   -0.2903   -1.9697   -1.1905 H   0  0  0  0  0  0
   -2.5028   -2.4953    0.0437 H   0  0  0  0  0  0
   -4.9525   -2.4649   -0.1666 H   0  0  0  0  0  0
   -7.0051    1.0320   -1.6808 H   0  0  0  0  0  0
   -8.0584   -0.1627   -0.9999 H   0  0  0  0  0  0
   -7.3537    0.7771    0.9747 H   0  0  0  0  0  0
   -6.1504   -0.4597    0.8452 H   0  0  0  0  0  0
   -4.6821    1.4289   -0.3468 H   0  0  0  0  0  0
   -5.9047    2.5213    0.2176 H   0  0  0  0  0  0
   -4.1793    2.6005    1.8543 H   0  0  0  0  0  0
   -5.4300    1.6486    2.6074 H   0  0  0  0  0  0
   -3.5736   -0.4254    4.2925 H   0  0  0  0  0  0
   -2.2039    0.4649   -3.0539 H   0  0  0  0  0  0
    0.9679   -1.2776    1.8614 H   0  0  0  0  0  0
    4.3732   -2.1646    2.8976 H   0  0  0  0  0  0
    3.1257   -3.0313    1.9087 H   0  0  0  0  0  0
    5.0834   -0.8435    0.8339 H   0  0  0  0  0  0
    3.8347   -1.7149   -0.1490 H   0  0  0  0  0  0
  1  2  1  0  0  0
  2  3  1  0  0  0
  2  4  1  0  0  0
  2  5  1  0  0  0
  5  6  2  0  0  0
  5 25  1  0  0  0
  6  7  1  0  0  0
  6 37  1  0  0  0
  7  8  2  0  0  0
  7 38  1  0  0  0
  8  9  1  0  0  0
  8 24  1  0  0  0
  9 10  2  0  0  0
  9 11  1  0  0  0
 11 12  1  0  0  0
 11 39  1  0  0  0
 12 13  1  0  0  0
 12 29  1  0  0  0
 12 40  1  0  0  0
 13 14  1  0  0  0
 13 41  1  0  0  0
 13 42  1  0  0  0
 14 15  2  0  0  0
 14 28  1  0  0  0
 15 16  1  0  0  0
 15 43  1  0  0  0
 16 17  2  0  0  0
 16 44  1  0  0  0
 17 18  1  0  0  0
 17 26  1  0  0  0
 18 19  1  0  0  0
 19 20  1  0  0  0
 19 45  1  0  0  0
 19 46  1  0  0  0
 20 21  1  0  0  0
 20 47  1  0  0  0
 20 48  1  0  0  0
 21 22  1  0  0  0
 21 49  1  0  0  0
 21 50  1  0  0  0
 22 23  1  0  0  0
 22 51  1  0  0  0
 22 52  1  0  0  0
 23 24  1  0  0  0
 24 25  2  0  0  0
 25 53  1  0  0  0
 26 27  1  0  0  0
 26 28  2  0  0  0
 28 54  1  0  0  0
 29 30  2  0  0  0
 29 31  1  0  0  0
 31 32  1  0  0  0
 31 55  1  0  0  0
 32 33  1  0  0  0
 32 34  1  0  0  0
 32 35  1  0  0  0
 33 34  1  0  0  0
 33 56  1  0  0  0
 33 57  1  0  0  0
 34 58  1  0  0  0
 34 59  1  0  0  0
 35 36  3  0  0  0
M  END
> <chembl_id>
CHEMBL3917415

> <chembl_pref_name>
None

> <i_m_ct_stereo_status>
1

> <s_m_source_file>
sdf/inactives_sanitized.sdf

> <i_m_source_file_index>
101

> <i_lp_mmshare_version>
49012

> <i_f3d_flags>
0

> <s_epik_input>
RkMoRikoRiljKFtjSF1bY0hdMSlbY0hdYyhjMTIpT1tDSDJdW0NIMl1bQ0gyXVtDSDJdT2MzW2NIXVtjSF1jKFtjSF1jM0NsKVtDSDJdW0NASF0oW05IXUMyPU8pQyg9TylbTkhdQzQoQyNOKVtDSDJdW0NIMl00

> <s_epik_cmdline>
J2VwaWtfcHl0aG9uJywgJy1waHQnLCAnMC41JywgJy1waCcsICc3LjUnLCAnLW50JywgJy1tYScsICcyMDAnLCAnLWltYWUnLCAnPGluZmlsZS5tYWU+JywgJy1vbWFlJywgJzxvdXRmaWxlLm1hZT4n

> <r_lp_tautomer_probability>
1

> <r_epik_Ionization_Penalty>
  0.0000

> <r_epik_Ionization_Penalty_Charging>
  0.0000

> <r_epik_Ionization_Penalty_Neutral>
  0.0000

> <r_epik_State_Penalty>
 -0.0000

> <r_epik_Charging_Adjusted_Penalty>
0

> <i_epik_Tot_Q>
0

> <i_epik_Tot_abs_Q>
0

> <s_lp_Force_Field>
OPLS3e

> <r_lp_Energy>
56.967182

> <b_lp_Chiralities_Consistent>
1

> <s_lp_Variant>
sdf/inactives_sanitized.sdf:101-1

$$$$
sdf/inactives_sanitized.sdf:102
                    3D
 Schrodinger Suite 2020-1.
 53 56  0  0  1  0            999 V2000
   -1.3426   -2.3923   -0.2111 O   0  0  0  0  0  0
   -1.1891   -1.6915   -1.2149 C   0  0  0  0  0  0
   -0.5620   -0.5013   -1.1659 N   0  0  0  0  0  0
    0.0300    0.1063    0.0291 C   0  0  1  0  0  0
    1.5714    0.0131    0.0421 C   0  0  0  0  0  0
    2.0962   -1.4173    0.0350 C   0  0  0  0  0  0
    2.1607   -2.1387    1.2270 C   0  0  0  0  0  0
    2.6166   -3.4538    1.2192 C   0  0  0  0  0  0
    3.0098   -4.0668    0.0228 C   0  0  0  0  0  0
    2.9418   -3.3313   -1.1672 C   0  0  0  0  0  0
    2.4903   -2.0145   -1.1632 C   0  0  0  0  0  0
    3.4880   -5.4784    0.0168 C   0  0  0  0  0  0
    3.0625   -6.3700   -0.9760 C   0  0  0  0  0  0
    3.5022   -7.6912   -0.9817 C   0  0  0  0  0  0
    4.3779   -8.1346    0.0100 C   0  0  0  0  0  0
    4.8119   -7.2576    1.0049 C   0  0  0  0  0  0
    4.3672   -5.9379    1.0056 C   0  0  0  0  0  0
    4.8393   -9.5151    0.0070 C   0  0  0  0  0  0
    5.2060  -10.6128    0.0046 N   0  0  0  0  0  0
   -0.4390    1.4953    0.1613 C   0  0  0  0  0  0
   -0.8076    2.5873    0.2647 N   0  0  0  0  0  0
   -1.6603   -2.1621   -2.6202 C   0  0  1  0  0  0
   -2.5011   -3.3806   -2.4960 N   0  0  1  0  0  0
   -3.7859   -3.2625   -3.2097 C   0  0  2  0  0  0
   -3.4796   -2.9746   -4.7057 C   0  0  0  0  0  0
   -2.6620   -1.6589   -4.8484 C   0  0  0  0  0  0
   -2.3875   -1.0382   -3.4496 C   0  0  1  0  0  0
   -3.7569   -0.7473   -2.7659 C   0  0  0  0  0  0
   -4.5677   -2.0638   -2.6058 C   0  0  0  0  0  0
   -0.3713   -0.0316   -2.0387 H   0  0  0  0  0  0
   -0.3465   -0.3824    0.9304 H   0  0  0  0  0  0
    1.9875    0.5573   -0.8077 H   0  0  0  0  0  0
    1.9657    0.5242    0.9221 H   0  0  0  0  0  0
    1.8502   -1.6860    2.1575 H   0  0  0  0  0  0
    2.6513   -4.0007    2.1505 H   0  0  0  0  0  0
    3.2422   -3.7781   -2.1039 H   0  0  0  0  0  0
    2.4381   -1.4649   -2.0919 H   0  0  0  0  0  0
    2.3786   -6.0433   -1.7461 H   0  0  0  0  0  0
    3.1556   -8.3601   -1.7572 H   0  0  0  0  0  0
    5.4912   -7.5870    1.7790 H   0  0  0  0  0  0
    4.7156   -5.2696    1.7799 H   0  0  0  0  0  0
   -0.7300   -2.4432   -3.1171 H   0  0  0  0  0  0
   -2.0048   -4.1510   -2.9204 H   0  0  0  0  0  0
   -4.3518   -4.1884   -3.0997 H   0  0  0  0  0  0
   -2.9294   -3.8083   -5.1448 H   0  0  0  0  0  0
   -4.4110   -2.8997   -5.2687 H   0  0  0  0  0  0
   -1.7208   -1.8541   -5.3647 H   0  0  0  0  0  0
   -3.2026   -0.9468   -5.4736 H   0  0  0  0  0  0
   -1.7885   -0.1314   -3.5458 H   0  0  0  0  0  0
   -3.6123   -0.2687   -1.7962 H   0  0  0  0  0  0
   -4.3235   -0.0319   -3.3637 H   0  0  0  0  0  0
   -4.7778   -2.2480   -1.5508 H   0  0  0  0  0  0
   -5.5389   -1.9676   -3.0933 H   0  0  0  0  0  0
  1  2  2  0  0  0
  2  3  1  0  0  0
  2 22  1  0  0  0
  3  4  1  0  0  0
  3 30  1  0  0  0
  4  5  1  0  0  0
  4 20  1  0  0  0
  4 31  1  0  0  0
  5  6  1  0  0  0
  5 32  1  0  0  0
  5 33  1  0  0  0
  6  7  2  0  0  0
  6 11  1  0  0  0
  7  8  1  0  0  0
  7 34  1  0  0  0
  8  9  2  0  0  0
  8 35  1  0  0  0
  9 10  1  0  0  0
  9 12  1  0  0  0
 10 11  2  0  0  0
 10 36  1  0  0  0
 11 37  1  0  0  0
 12 13  2  0  0  0
 12 17  1  0  0  0
 13 14  1  0  0  0
 13 38  1  0  0  0
 14 15  2  0  0  0
 14 39  1  0  0  0
 15 16  1  0  0  0
 15 18  1  0  0  0
 16 17  2  0  0  0
 16 40  1  0  0  0
 17 41  1  0  0  0
 18 19  3  0  0  0
 20 21  3  0  0  0
 22 23  1  0  0  0
 22 27  1  0  0  0
 22 42  1  0  0  0
 23 24  1  0  0  0
 23 43  1  0  0  0
 24 25  1  0  0  0
 24 29  1  0  0  0
 24 44  1  0  0  0
 25 26  1  0  0  0
 25 45  1  0  0  0
 25 46  1  0  0  0
 26 27  1  0  0  0
 26 47  1  0  0  0
 26 48  1  0  0  0
 27 28  1  0  0  0
 27 49  1  0  0  0
 28 29  1  0  0  0
 28 50  1  0  0  0
 28 51  1  0  0  0
 29 52  1  0  0  0
 29 53  1  0  0  0
M  END
> <chembl_id>
CHEMBL3695336

> <chembl_pref_name>
None

> <i_m_ct_stereo_status>
1

> <s_m_source_file>
sdf/inactives_sanitized.sdf

> <i_m_source_file_index>
102

> <i_lp_mmshare_version>
49012

> <i_f3d_flags>
0

> <s_epik_input>
W0NIMl0xW0NIMl1bQ0BASF0oW0NIMl1bQ0gyXTIpW0NASF0oW05IXVtDQEhdMTIpQyg9TylbTkhdW0NASF0oQyNOKVtDSDJdYzNbY0hdW2NIXWMoW2NIXVtjSF0zKS1jNFtjSF1bY0hdYyhDI04pW2NIXVtjSF00

> <s_epik_cmdline>
J2VwaWtfcHl0aG9uJywgJy1waHQnLCAnMC41JywgJy1waCcsICc3LjUnLCAnLW50JywgJy1tYScsICcyMDAnLCAnLWltYWUnLCAnPGluZmlsZS5tYWU+JywgJy1vbWFlJywgJzxvdXRmaWxlLm1hZT4n

> <r_epik_Ionization_Penalty>
  0.4101

> <r_epik_Ionization_Penalty_Charging>
  0.0000

> <r_epik_Ionization_Penalty_Neutral>
  0.4101

> <r_epik_State_Penalty>
  0.4100

> <r_epik_Charging_Adjusted_Penalty>
0.410033589345069

> <i_epik_Tot_Q>
0

> <i_epik_Tot_abs_Q>
0

> <s_lp_Force_Field>
OPLS3e

> <r_lp_Energy>
44.435276

> <b_lp_Chiralities_Consistent>
1

> <s_lp_Variant>
sdf/inactives_sanitized.sdf:102-1

$$$$
sdf/inactives_sanitized.sdf:102
                    3D
 Schrodinger Suite 2020-1.
 54 57  0  0  1  0            999 V2000
   -3.0889   -1.1964   -0.1317 O   0  0  0  0  0  0
   -2.2149   -1.5950   -0.9059 C   0  0  0  0  0  0
   -0.9059   -1.3618   -0.7013 N   0  0  0  0  0  0
   -0.3184   -0.6206    0.4207 C   0  0  1  0  0  0
    1.2061   -0.4481    0.2561 C   0  0  0  0  0  0
    1.9668   -1.7660    0.1771 C   0  0  0  0  0  0
    2.2880   -2.4525    1.3481 C   0  0  0  0  0  0
    2.9766   -3.6602    1.2789 C   0  0  0  0  0  0
    3.3518   -4.1990    0.0418 C   0  0  0  0  0  0
    3.0225   -3.5006   -1.1268 C   0  0  0  0  0  0
    2.3353   -2.2917   -1.0620 C   0  0  0  0  0  0
    4.0893   -5.4924   -0.0291 C   0  0  0  0  0  0
    3.7487   -6.4555   -0.9872 C   0  0  0  0  0  0
    4.4351   -7.6651   -1.0552 C   0  0  0  0  0  0
    5.4753   -7.9229   -0.1620 C   0  0  0  0  0  0
    5.8269   -6.9727    0.7972 C   0  0  0  0  0  0
    5.1352   -5.7660    0.8615 C   0  0  0  0  0  0
    6.1953   -9.1860   -0.2309 C   0  0  0  0  0  0
    6.7676  -10.1903   -0.2857 N   0  0  0  0  0  0
   -0.9729    0.6841    0.6451 C   0  0  0  0  0  0
   -1.4853    1.7068    0.8204 N   0  0  0  0  0  0
   -2.5510   -2.4089   -2.1826 C   0  0  1  0  0  0
   -4.0851   -2.6786   -2.1464 N   0  3  0  0  0  0
   -4.7987   -2.2013   -3.4344 C   0  0  2  0  0  0
   -4.1186   -2.9378   -4.6168 C   0  0  0  0  0  0
   -2.6002   -2.6026   -4.6755 C   0  0  0  0  0  0
   -2.1836   -1.6595   -3.5108 C   0  0  1  0  0  0
   -3.0377   -0.3591   -3.6280 C   0  0  0  0  0  0
   -4.5574   -0.6745   -3.5408 C   0  0  0  0  0  0
   -0.2454   -1.8486   -1.2898 H   0  0  0  0  0  0
   -0.5005   -1.2039    1.3254 H   0  0  0  0  0  0
    1.4219    0.1492   -0.6319 H   0  0  0  0  0  0
    1.6063    0.1341    1.0880 H   0  0  0  0  0  0
    2.0038   -2.0539    2.3114 H   0  0  0  0  0  0
    3.2127   -4.1808    2.1959 H   0  0  0  0  0  0
    3.3062   -3.8902   -2.0939 H   0  0  0  0  0  0
    2.0914   -1.7671   -1.9746 H   0  0  0  0  0  0
    2.9421   -6.2732   -1.6824 H   0  0  0  0  0  0
    4.1508   -8.3929   -1.8027 H   0  0  0  0  0  0
    6.6321   -7.1578    1.4947 H   0  0  0  0  0  0
    5.4229   -5.0388    1.6069 H   0  0  0  0  0  0
   -2.0705   -3.3835   -2.0811 H   0  0  0  0  0  0
   -4.2485   -3.6687   -2.0313 H   0  0  0  0  0  0
   -5.8525   -2.4588   -3.3184 H   0  0  0  0  0  0
   -4.2621   -4.0152   -4.5205 H   0  0  0  0  0  0
   -4.5995   -2.6551   -5.5545 H   0  0  0  0  0  0
   -2.0125   -3.5213   -4.6425 H   0  0  0  0  0  0
   -2.3591   -2.1368   -5.6324 H   0  0  0  0  0  0
   -1.1169   -1.4345   -3.5643 H   0  0  0  0  0  0
   -2.7553    0.3627   -2.8601 H   0  0  0  0  0  0
   -2.8199    0.1351   -4.5763 H   0  0  0  0  0  0
   -4.9947   -0.1668   -2.6793 H   0  0  0  0  0  0
   -5.0731   -0.2763   -4.4160 H   0  0  0  0  0  0
   -4.4856   -2.2030   -1.3494 H   0  0  0  0  0  0
  1  2  2  0  0  0
  2  3  1  0  0  0
  2 22  1  0  0  0
  3  4  1  0  0  0
  3 30  1  0  0  0
  4  5  1  0  0  0
  4 20  1  0  0  0
  4 31  1  0  0  0
  5  6  1  0  0  0
  5 32  1  0  0  0
  5 33  1  0  0  0
  6  7  2  0  0  0
  6 11  1  0  0  0
  7  8  1  0  0  0
  7 34  1  0  0  0
  8  9  2  0  0  0
  8 35  1  0  0  0
  9 10  1  0  0  0
  9 12  1  0  0  0
 10 11  2  0  0  0
 10 36  1  0  0  0
 11 37  1  0  0  0
 12 13  2  0  0  0
 12 17  1  0  0  0
 13 14  1  0  0  0
 13 38  1  0  0  0
 14 15  2  0  0  0
 14 39  1  0  0  0
 15 16  1  0  0  0
 15 18  1  0  0  0
 16 17  2  0  0  0
 16 40  1  0  0  0
 17 41  1  0  0  0
 18 19  3  0  0  0
 20 21  3  0  0  0
 22 23  1  0  0  0
 22 27  1  0  0  0
 22 42  1  0  0  0
 23 24  1  0  0  0
 23 43  1  0  0  0
 23 54  1  0  0  0
 24 25  1  0  0  0
 24 29  1  0  0  0
 24 44  1  0  0  0
 25 26  1  0  0  0
 25 45  1  0  0  0
 25 46  1  0  0  0
 26 27  1  0  0  0
 26 47  1  0  0  0
 26 48  1  0  0  0
 27 28  1  0  0  0
 27 49  1  0  0  0
 28 29  1  0  0  0
 28 50  1  0  0  0
 28 51  1  0  0  0
 29 52  1  0  0  0
 29 53  1  0  0  0
M  CHG  1  23   1
M  END
> <chembl_id>
CHEMBL3695336

> <chembl_pref_name>
None

> <i_m_ct_stereo_status>
1

> <s_m_source_file>
sdf/inactives_sanitized.sdf

> <i_m_source_file_index>
102

> <i_lp_mmshare_version>
49012

> <i_f3d_flags>
0

> <s_epik_input>
W0NIMl0xW0NIMl1bQ0BASF0oW0NIMl1bQ0gyXTIpW0NASF0oW05IXVtDQEhdMTIpQyg9TylbTkhdW0NASF0oQyNOKVtDSDJdYzNbY0hdW2NIXWMoW2NIXVtjSF0zKS1jNFtjSF1bY0hdYyhDI04pW2NIXVtjSF00

> <s_epik_cmdline>
J2VwaWtfcHl0aG9uJywgJy1waHQnLCAnMC41JywgJy1waCcsICc3LjUnLCAnLW50JywgJy1tYScsICcyMDAnLCAnLWltYWUnLCAnPGluZmlsZS5tYWU+JywgJy1vbWFlJywgJzxvdXRmaWxlLm1hZT4n

> <r_epik_Ionization_Penalty>
  0.4114

> <r_epik_Ionization_Penalty_Charging>
  0.4113

> <r_epik_Ionization_Penalty_Neutral>
  0.0002

> <r_epik_State_Penalty>
  0.4113

> <r_epik_Charging_Adjusted_Penalty>
0.822612897831462

> <i_epik_Tot_Q>
1

> <i_epik_Tot_abs_Q>
1

> <s_lp_Force_Field>
OPLS3e

> <r_lp_Energy>
48.931546

> <b_lp_Chiralities_Consistent>
1

> <s_lp_Variant>
sdf/inactives_sanitized.sdf:102-2

$$$$
sdf/inactives_sanitized.sdf:103
                    3D
 Schrodinger Suite 2020-1.
 60 63  0  0  1  0            999 V2000
   -7.7957   -4.6363   -2.4909 C   0  0  0  0  0  0
   -6.8928   -3.8229   -1.0507 S   0  0  0  0  0  0
   -7.6286   -4.0928    0.1891 O   0  0  0  0  0  0
   -5.4612   -4.1262   -1.1545 O   0  0  0  0  0  0
   -7.1106   -2.0992   -1.4068 N   0  0  0  0  0  0
   -6.4120   -1.1561   -0.6460 C   0  0  0  0  0  0
   -7.1257   -0.2542    0.1433 C   0  0  0  0  0  0
   -6.4481    0.6969    0.9022 C   0  0  0  0  0  0
   -5.0554    0.7520    0.8701 C   0  0  0  0  0  0
   -4.3135   -0.1372    0.0776 C   0  0  0  0  0  0
   -5.0157   -1.0852   -0.6826 C   0  0  0  0  0  0
   -2.8203   -0.0785    0.0461 C   0  0  0  0  0  0
   -2.0594   -1.2475   -0.0972 C   0  0  0  0  0  0
   -0.6683   -1.1961   -0.1162 C   0  0  0  0  0  0
   -0.0153    0.0300    0.0069 C   0  0  0  0  0  0
    1.5058    0.0885   -0.0098 C   0  0  0  0  0  0
    2.1120    0.0644   -1.4327 C   0  0  2  0  0  0
    3.5785    0.0513   -1.4203 N   0  0  0  0  0  0
    4.3776    1.0832   -1.0869 C   0  0  0  0  0  0
    3.9299    2.1767   -0.7317 O   0  0  0  0  0  0
    5.9028    0.8003   -1.1356 C   0  0  1  0  0  0
    6.6590    2.0788   -1.1329 N   0  0  1  0  0  0
    7.6958    2.1247   -0.0849 C   0  0  2  0  0  0
    8.6567    0.9228   -0.3020 C   0  0  0  0  0  0
    7.8733   -0.4195   -0.2255 C   0  0  0  0  0  0
    6.3631   -0.1493    0.0297 C   0  0  1  0  0  0
    6.2292    0.6273    1.3748 C   0  0  0  0  0  0
    6.9964    1.9770    1.2943 C   0  0  0  0  0  0
    1.5733    1.1241   -2.3101 C   0  0  0  0  0  0
    1.1503    1.9532   -2.9980 N   0  0  0  0  0  0
   -0.7581    1.2026    0.1433 C   0  0  0  0  0  0
   -2.1485    1.1463    0.1634 C   0  0  0  0  0  0
   -7.7324   -5.7183   -2.3799 H   0  0  0  0  0  0
   -7.3229   -4.3294   -3.4235 H   0  0  0  0  0  0
   -8.8386   -4.3211   -2.4798 H   0  0  0  0  0  0
   -8.0949   -1.8764   -1.4250 H   0  0  0  0  0  0
   -8.2052   -0.2905    0.1770 H   0  0  0  0  0  0
   -7.0015    1.3894    1.5193 H   0  0  0  0  0  0
   -4.5548    1.4908    1.4786 H   0  0  0  0  0  0
   -4.4716   -1.7664   -1.3202 H   0  0  0  0  0  0
   -2.5421   -2.2103   -0.1817 H   0  0  0  0  0  0
   -0.1016   -2.1097   -0.2234 H   0  0  0  0  0  0
    1.8341    0.9781    0.5304 H   0  0  0  0  0  0
    1.8911   -0.7501    0.5728 H   0  0  0  0  0  0
    1.8091   -0.8668   -1.9129 H   0  0  0  0  0  0
    4.0132   -0.8004   -1.7437 H   0  0  0  0  0  0
    6.0672    0.3180   -2.1015 H   0  0  0  0  0  0
    7.1372    2.1653   -2.0182 H   0  0  0  0  0  0
    8.2349    3.0708   -0.1455 H   0  0  0  0  0  0
    9.1592    1.0119   -1.2665 H   0  0  0  0  0  0
    9.4468    0.9382    0.4502 H   0  0  0  0  0  0
    8.0047   -0.9862   -1.1485 H   0  0  0  0  0  0
    8.2806   -1.0465    0.5692 H   0  0  0  0  0  0
    5.7989   -1.0831    0.0500 H   0  0  0  0  0  0
    5.1808    0.7990    1.6224 H   0  0  0  0  0  0
    6.6264    0.0223    2.1910 H   0  0  0  0  0  0
    6.3080    2.8085    1.4551 H   0  0  0  0  0  0
    7.7338    2.0378    2.0958 H   0  0  0  0  0  0
   -0.2619    2.1584    0.2309 H   0  0  0  0  0  0
   -2.7008    2.0692    0.2620 H   0  0  0  0  0  0
  1  2  1  0  0  0
  1 33  1  0  0  0
  1 34  1  0  0  0
  1 35  1  0  0  0
  2  3  2  0  0  0
  2  4  2  0  0  0
  2  5  1  0  0  0
  5  6  1  0  0  0
  5 36  1  0  0  0
  6  7  2  0  0  0
  6 11  1  0  0  0
  7  8  1  0  0  0
  7 37  1  0  0  0
  8  9  2  0  0  0
  8 38  1  0  0  0
  9 10  1  0  0  0
  9 39  1  0  0  0
 10 11  2  0  0  0
 10 12  1  0  0  0
 11 40  1  0  0  0
 12 13  2  0  0  0
 12 32  1  0  0  0
 13 14  1  0  0  0
 13 41  1  0  0  0
 14 15  2  0  0  0
 14 42  1  0  0  0
 15 16  1  0  0  0
 15 31  1  0  0  0
 16 17  1  0  0  0
 16 43  1  0  0  0
 16 44  1  0  0  0
 17 18  1  0  0  0
 17 29  1  0  0  0
 17 45  1  0  0  0
 18 19  1  0  0  0
 18 46  1  0  0  0
 19 20  2  0  0  0
 19 21  1  0  0  0
 21 22  1  0  0  0
 21 26  1  0  0  0
 21 47  1  0  0  0
 22 23  1  0  0  0
 22 48  1  0  0  0
 23 24  1  0  0  0
 23 28  1  0  0  0
 23 49  1  0  0  0
 24 25  1  0  0  0
 24 50  1  0  0  0
 24 51  1  0  0  0
 25 26  1  0  0  0
 25 52  1  0  0  0
 25 53  1  0  0  0
 26 27  1  0  0  0
 26 54  1  0  0  0
 27 28  1  0  0  0
 27 55  1  0  0  0
 27 56  1  0  0  0
 28 57  1  0  0  0
 28 58  1  0  0  0
 29 30  3  0  0  0
 31 32  2  0  0  0
 31 59  1  0  0  0
 32 60  1  0  0  0
M  END
> <chembl_id>
CHEMBL3695339

> <chembl_pref_name>
None

> <i_m_ct_stereo_status>
1

> <s_m_source_file>
sdf/inactives_sanitized.sdf

> <i_m_source_file_index>
103

> <i_lp_mmshare_version>
49012

> <i_f3d_flags>
0

> <s_epik_input>
W0NIM11TKD1PKSg9TylbTkhdYzFbY0hdW2NIXVtjSF1jKFtjSF0xKS1jMltjSF1bY0hdYyhbY0hdW2NIXTIpW0NIMl1bQ0BASF0oQyNOKVtOSF1DKD1PKVtDQEBIXShbTkhdW0NASF0zNClbQ0BASF0oW0NIMl1bQ0gyXTMpW0NIMl1bQ0gyXTQ=

> <s_epik_cmdline>
J2VwaWtfcHl0aG9uJywgJy1waHQnLCAnMC41JywgJy1waCcsICc3LjUnLCAnLW50JywgJy1tYScsICcyMDAnLCAnLWltYWUnLCAnPGluZmlsZS5tYWU+JywgJy1vbWFlJywgJzxvdXRmaWxlLm1hZT4n

> <r_epik_Ionization_Penalty>
  0.4558

> <r_epik_Ionization_Penalty_Charging>
  0.0000

> <r_epik_Ionization_Penalty_Neutral>
  0.4558

> <r_epik_State_Penalty>
  0.4488

> <r_epik_Charging_Adjusted_Penalty>
0.448841572154521

> <i_epik_Tot_Q>
0

> <i_epik_Tot_abs_Q>
0

> <s_lp_Force_Field>
OPLS3e

> <r_lp_Energy>
37.97223

> <b_lp_Chiralities_Consistent>
1

> <s_lp_Variant>
sdf/inactives_sanitized.sdf:103-1

$$$$
sdf/inactives_sanitized.sdf:103
                    3D
 Schrodinger Suite 2020-1.
 61 64  0  0  1  0            999 V2000
   -9.1384   -4.2311    1.9428 C   0  0  0  0  0  0
   -8.9670   -2.4621    1.3162 S   0  0  0  0  0  0
   -9.6665   -2.3308    0.0336 O   0  0  0  0  0  0
   -9.2447   -1.5277    2.4121 O   0  0  0  0  0  0
   -7.2301   -2.3487    0.9713 N   0  0  0  0  0  0
   -6.5954   -1.1725    0.5445 C   0  0  0  0  0  0
   -7.3034   -0.0358    0.1387 C   0  0  0  0  0  0
   -6.6196    1.1029   -0.2783 C   0  0  0  0  0  0
   -5.2263    1.1141   -0.2960 C   0  0  0  0  0  0
   -4.4878   -0.0098    0.1041 C   0  0  0  0  0  0
   -5.1979   -1.1464    0.5237 C   0  0  0  0  0  0
   -2.9916    0.0027    0.0839 C   0  0  0  0  0  0
   -2.2663   -1.1679   -0.1817 C   0  0  0  0  0  0
   -0.8743   -1.1590   -0.1963 C   0  0  0  0  0  0
   -0.1819    0.0261    0.0506 C   0  0  0  0  0  0
    1.3429    0.0397    0.0340 C   0  0  0  0  0  0
    1.9642    0.1832   -1.3771 C   0  0  2  0  0  0
    1.5360    1.3824   -2.1006 N   0  0  0  0  0  0
    1.9362    2.6367   -1.8305 C   0  0  0  0  0  0
    2.7266    2.8959   -0.9193 O   0  0  0  0  0  0
    1.3423    3.7357   -2.7486 C   0  0  1  0  0  0
    1.7213    5.1027   -2.1044 N   0  3  0  0  0  0
    2.4531    6.0399   -3.0955 C   0  0  2  0  0  0
    1.5147    6.2167   -4.3166 C   0  0  0  0  0  0
    1.2147    4.8442   -4.9857 C   0  0  0  0  0  0
    1.8974    3.6786   -4.2146 C   0  0  1  0  0  0
    3.4328    3.9568   -4.2040 C   0  0  0  0  0  0
    3.7548    5.3138   -3.5176 C   0  0  0  0  0  0
    1.7310   -1.0026   -2.2188 C   0  0  0  0  0  0
    1.5476   -1.9337   -2.8810 N   0  0  0  0  0  0
   -0.8884    1.1995    0.3147 C   0  0  0  0  0  0
   -2.2801    1.1855    0.3312 C   0  0  0  0  0  0
  -10.1853   -4.4218    2.1763 H   0  0  0  0  0  0
   -8.5295   -4.3508    2.8385 H   0  0  0  0  0  0
   -8.8001   -4.9164    1.1659 H   0  0  0  0  0  0
   -6.6451   -3.1237    1.2464 H   0  0  0  0  0  0
   -8.3828   -0.0180    0.1409 H   0  0  0  0  0  0
   -7.1706    1.9772   -0.5917 H   0  0  0  0  0  0
   -4.7251    2.0079   -0.6369 H   0  0  0  0  0  0
   -4.6582   -2.0240    0.8499 H   0  0  0  0  0  0
   -2.7765   -2.0968   -0.3896 H   0  0  0  0  0  0
   -0.3373   -2.0734   -0.4038 H   0  0  0  0  0  0
    1.6965    0.8441    0.6813 H   0  0  0  0  0  0
    1.7047   -0.8760    0.5046 H   0  0  0  0  0  0
    3.0509    0.2142   -1.2750 H   0  0  0  0  0  0
    0.8611    1.2367   -2.8376 H   0  0  0  0  0  0
    0.2550    3.6617   -2.6865 H   0  0  0  0  0  0
    0.8833    5.5630   -1.7787 H   0  0  0  0  0  0
    2.6399    6.9719   -2.5604 H   0  0  0  0  0  0
    0.5838    6.6956   -4.0088 H   0  0  0  0  0  0
    1.9729    6.8924   -5.0406 H   0  0  0  0  0  0
    0.1372    4.6799   -5.0389 H   0  0  0  0  0  0
    1.5594    4.8529   -6.0211 H   0  0  0  0  0  0
    1.6751    2.7227   -4.6925 H   0  0  0  0  0  0
    3.9712    3.1459   -3.7114 H   0  0  0  0  0  0
    3.8083    3.9660   -5.2286 H   0  0  0  0  0  0
    4.3905    5.1498   -2.6457 H   0  0  0  0  0  0
    4.3317    5.9476   -4.1929 H   0  0  0  0  0  0
   -0.3621    2.1224    0.5109 H   0  0  0  0  0  0
   -2.8011    2.1054    0.5519 H   0  0  0  0  0  0
    2.3162    4.9374   -1.3041 H   0  0  0  0  0  0
  1  2  1  0  0  0
  1 33  1  0  0  0
  1 34  1  0  0  0
  1 35  1  0  0  0
  2  3  2  0  0  0
  2  4  2  0  0  0
  2  5  1  0  0  0
  5  6  1  0  0  0
  5 36  1  0  0  0
  6  7  2  0  0  0
  6 11  1  0  0  0
  7  8  1  0  0  0
  7 37  1  0  0  0
  8  9  2  0  0  0
  8 38  1  0  0  0
  9 10  1  0  0  0
  9 39  1  0  0  0
 10 11  2  0  0  0
 10 12  1  0  0  0
 11 40  1  0  0  0
 12 13  2  0  0  0
 12 32  1  0  0  0
 13 14  1  0  0  0
 13 41  1  0  0  0
 14 15  2  0  0  0
 14 42  1  0  0  0
 15 16  1  0  0  0
 15 31  1  0  0  0
 16 17  1  0  0  0
 16 43  1  0  0  0
 16 44  1  0  0  0
 17 18  1  0  0  0
 17 29  1  0  0  0
 17 45  1  0  0  0
 18 19  1  0  0  0
 18 46  1  0  0  0
 19 20  2  0  0  0
 19 21  1  0  0  0
 21 22  1  0  0  0
 21 26  1  0  0  0
 21 47  1  0  0  0
 22 23  1  0  0  0
 22 48  1  0  0  0
 22 61  1  0  0  0
 23 24  1  0  0  0
 23 28  1  0  0  0
 23 49  1  0  0  0
 24 25  1  0  0  0
 24 50  1  0  0  0
 24 51  1  0  0  0
 25 26  1  0  0  0
 25 52  1  0  0  0
 25 53  1  0  0  0
 26 27  1  0  0  0
 26 54  1  0  0  0
 27 28  1  0  0  0
 27 55  1  0  0  0
 27 56  1  0  0  0
 28 57  1  0  0  0
 28 58  1  0  0  0
 29 30  3  0  0  0
 31 32  2  0  0  0
 31 59  1  0  0  0
 32 60  1  0  0  0
M  CHG  1  22   1
M  END
> <chembl_id>
CHEMBL3695339

> <chembl_pref_name>
None

> <i_m_ct_stereo_status>
1

> <s_m_source_file>
sdf/inactives_sanitized.sdf

> <i_m_source_file_index>
103

> <i_lp_mmshare_version>
49012

> <i_f3d_flags>
0

> <s_epik_input>
W0NIM11TKD1PKSg9TylbTkhdYzFbY0hdW2NIXVtjSF1jKFtjSF0xKS1jMltjSF1bY0hdYyhbY0hdW2NIXTIpW0NIMl1bQ0BASF0oQyNOKVtOSF1DKD1PKVtDQEBIXShbTkhdW0NASF0zNClbQ0BASF0oW0NIMl1bQ0gyXTMpW0NIMl1bQ0gyXTQ=

> <s_epik_cmdline>
J2VwaWtfcHl0aG9uJywgJy1waHQnLCAnMC41JywgJy1waCcsICc3LjUnLCAnLW50JywgJy1tYScsICcyMDAnLCAnLWltYWUnLCAnPGluZmlsZS5tYWU+JywgJy1vbWFlJywgJzxvdXRmaWxlLm1hZT4n

> <r_epik_Ionization_Penalty>
  0.4571

> <r_epik_Ionization_Penalty_Charging>
  0.4113

> <r_epik_Ionization_Penalty_Neutral>
  0.0459

> <r_epik_State_Penalty>
  0.4501

> <r_epik_Charging_Adjusted_Penalty>
0.861420880640914

> <i_epik_Tot_Q>
1

> <i_epik_Tot_abs_Q>
1

> <s_lp_Force_Field>
OPLS3e

> <r_lp_Energy>
48.600764

> <b_lp_Chiralities_Consistent>
1

> <s_lp_Variant>
sdf/inactives_sanitized.sdf:103-2

$$$$
sdf/inactives_sanitized.sdf:104
                    3D
 Schrodinger Suite 2020-1.
 50 52  0  0  1  0            999 V2000
   -0.6689    2.1344   -1.0677 C   0  0  0  0  0  0
   -1.1328    3.4536   -1.1029 C   0  0  0  0  0  0
   -1.4705    4.0852    0.0997 C   0  0  0  0  0  0
   -1.3310    3.4134    1.3142 C   0  0  0  0  0  0
   -0.8442    2.1069    1.3394 C   0  0  0  0  0  0
   -0.5028    1.4617    0.1478 C   0  0  0  0  0  0
    0.0600    0.0423    0.1714 C   0  0  0  0  0  0
    1.6086   -0.0046    0.0335 C   0  0  2  0  0  0
    2.0846    0.6114   -1.2108 N   0  0  0  0  0  0
    2.1137   -1.4581    0.1041 C   0  0  0  0  0  0
    1.8945   -2.2306   -0.8310 O   0  0  0  0  0  0
    2.7453   -1.8174    1.2340 N   0  0  0  0  0  0
    3.3178   -3.1403    1.4636 C   0  0  0  0  0  0
    4.4450   -3.4417    0.5631 C   0  0  0  0  0  0
    5.3302   -3.6783   -0.1436 N   0  0  0  0  0  0
    2.7009    1.8046   -1.3203 C   0  0  0  0  0  0
    2.9688    2.5178   -0.3508 O   0  0  0  0  0  0
    2.9884    2.2750   -2.7283 C   0  0  0  0  0  0
    3.1111    3.6478   -2.9870 C   0  0  0  0  0  0
    3.3541    4.1046   -4.2795 C   0  0  0  0  0  0
    3.4822    3.1912   -5.3217 C   0  0  0  0  0  0
    3.3719    1.8245   -5.0821 C   0  0  0  0  0  0
    3.1266    1.3662   -3.7902 C   0  0  0  0  0  0
   -1.2457    4.1734   -2.4049 C   0  0  0  0  0  0
   -0.6030    3.8843   -3.6230 C   0  0  0  0  0  0
   -0.9169    4.7121   -4.5935 N   0  0  0  0  0  0
   -1.7654    5.5775   -4.0294 N   0  0  0  0  0  0
   -2.0053    5.2945   -2.7104 C   0  0  0  0  0  0
   -2.3485    6.6340   -4.8373 C   0  0  0  0  0  0
   -0.4106    1.6307   -1.9879 H   0  0  0  0  0  0
   -1.8325    5.1028    0.1009 H   0  0  0  0  0  0
   -1.5900    3.9103    2.2375 H   0  0  0  0  0  0
   -0.7253    1.6021    2.2871 H   0  0  0  0  0  0
   -0.2628   -0.4507    1.0907 H   0  0  0  0  0  0
   -0.4232   -0.5256   -0.6266 H   0  0  0  0  0  0
    2.0193    0.5398    0.8873 H   0  0  0  0  0  0
    1.9083    0.0772   -2.0490 H   0  0  0  0  0  0
    2.9042   -1.1226    1.9494 H   0  0  0  0  0  0
    3.6829   -3.1941    2.4893 H   0  0  0  0  0  0
    2.5592   -3.9168    1.3529 H   0  0  0  0  0  0
    3.0076    4.3735   -2.1924 H   0  0  0  0  0  0
    3.4407    5.1638   -4.4724 H   0  0  0  0  0  0
    3.6701    3.5461   -6.3243 H   0  0  0  0  0  0
    3.4759    1.1218   -5.8958 H   0  0  0  0  0  0
    3.0475    0.3005   -3.6289 H   0  0  0  0  0  0
    0.0902    3.0734   -3.7931 H   0  0  0  0  0  0
   -2.6802    5.8993   -2.1225 H   0  0  0  0  0  0
   -2.8628    7.3513   -4.1966 H   0  0  0  0  0  0
   -3.0640    6.2006   -5.5372 H   0  0  0  0  0  0
   -1.5634    7.1512   -5.3909 H   0  0  0  0  0  0
  1  6  2  0  0  0
  1  2  1  0  0  0
  1 30  1  0  0  0
  2  3  2  0  0  0
  2 24  1  0  0  0
  3  4  1  0  0  0
  3 31  1  0  0  0
  4  5  2  0  0  0
  4 32  1  0  0  0
  5  6  1  0  0  0
  5 33  1  0  0  0
  6  7  1  0  0  0
  7  8  1  0  0  0
  7 34  1  0  0  0
  7 35  1  0  0  0
  8  9  1  0  0  0
  8 10  1  0  0  0
  8 36  1  0  0  0
  9 16  1  0  0  0
  9 37  1  0  0  0
 10 11  2  0  0  0
 10 12  1  0  0  0
 12 13  1  0  0  0
 12 38  1  0  0  0
 13 14  1  0  0  0
 13 39  1  0  0  0
 13 40  1  0  0  0
 14 15  3  0  0  0
 16 17  2  0  0  0
 16 18  1  0  0  0
 18 19  2  0  0  0
 18 23  1  0  0  0
 19 20  1  0  0  0
 19 41  1  0  0  0
 20 21  2  0  0  0
 20 42  1  0  0  0
 21 22  1  0  0  0
 21 43  1  0  0  0
 22 23  2  0  0  0
 22 44  1  0  0  0
 23 45  1  0  0  0
 24 25  1  0  0  0
 24 28  2  0  0  0
 25 26  2  0  0  0
 25 46  1  0  0  0
 26 27  1  0  0  0
 27 28  1  0  0  0
 27 29  1  0  0  0
 28 47  1  0  0  0
 29 48  1  0  0  0
 29 49  1  0  0  0
 29 50  1  0  0  0
M  END
> <chembl_id>
CHEMBL560736

> <chembl_pref_name>
None

> <i_m_ct_stereo_status>
1

> <s_m_source_file>
sdf/inactives_sanitized.sdf

> <i_m_source_file_index>
104

> <i_lp_mmshare_version>
49012

> <i_f3d_flags>
0

> <s_epik_input>
W2NIXTFuKFtDSDNdKW5bY0hdYzEtYzJbY0hdYyhbY0hdW2NIXVtjSF0yKVtDSDJdW0NAQEhdKEMoPU8pW05IXVtDSDJdQyNOKVtOSF1DKD1PKWMzW2NIXVtjSF1bY0hdW2NIXVtjSF0z

> <s_epik_cmdline>
J2VwaWtfcHl0aG9uJywgJy1waHQnLCAnMC41JywgJy1waCcsICc3LjUnLCAnLW50JywgJy1tYScsICcyMDAnLCAnLWltYWUnLCAnPGluZmlsZS5tYWU+JywgJy1vbWFlJywgJzxvdXRmaWxlLm1hZT4n

> <r_lp_tautomer_probability>
1

> <r_epik_Ionization_Penalty>
  0.0001

> <r_epik_Ionization_Penalty_Charging>
  0.0000

> <r_epik_Ionization_Penalty_Neutral>
  0.0001

> <r_epik_State_Penalty>
 -0.0000

> <r_epik_Charging_Adjusted_Penalty>
0

> <i_epik_Tot_Q>
0

> <i_epik_Tot_abs_Q>
0

> <s_lp_Force_Field>
OPLS3e

> <r_lp_Energy>
26.307134

> <b_lp_Chiralities_Consistent>
1

> <s_lp_Variant>
sdf/inactives_sanitized.sdf:104-1

$$$$
sdf/inactives_sanitized.sdf:105
                    3D
 Schrodinger Suite 2020-1.
 27 26  0  0  1  0            999 V2000
   -0.5744    1.1752   -0.0150 C   0  0  0  0  0  0
    0.1089   -0.0344   -0.0084 N   0  0  0  0  0  0
   -1.9098    0.9148   -0.0130 O   0  0  0  0  0  0
   -0.0700    2.2997   -0.0189 O   0  0  0  0  0  0
   -2.9542    1.9065   -0.0077 C   0  0  0  0  0  0
    2.8940   -0.5292   -1.9623 O   0  0  0  0  0  0
    1.9372   -0.8404   -1.2552 C   0  0  0  0  0  0
    1.5754   -0.0792   -0.0023 C   0  0  2  0  0  0
   -2.9019    2.7915   -1.2783 C   0  0  0  0  0  0
   -2.9009    2.7735    1.2748 C   0  0  0  0  0  0
   -4.2601    1.0855   -0.0133 C   0  0  0  0  0  0
    2.0552   -0.8418    1.2471 C   0  0  0  0  0  0
   -0.4082   -0.9007    0.0294 H   0  0  0  0  0  0
    1.3259   -1.7174   -1.4737 H   0  0  0  0  0  0
    2.0505    0.9050   -0.0074 H   0  0  0  0  0  0
   -3.7716    3.4466   -1.3422 H   0  0  0  0  0  0
   -2.8832    2.1834   -2.1837 H   0  0  0  0  0  0
   -2.0187    3.4298   -1.3015 H   0  0  0  0  0  0
   -2.0145    3.4067    1.3087 H   0  0  0  0  0  0
   -2.8869    2.1526    2.1714 H   0  0  0  0  0  0
   -3.7678    3.4315    1.3460 H   0  0  0  0  0  0
   -5.1403    1.7297   -0.0095 H   0  0  0  0  0  0
   -4.3270    0.4347    0.8600 H   0  0  0  0  0  0
   -4.3265    0.4458   -0.8948 H   0  0  0  0  0  0
    3.1416   -0.9430    1.2600 H   0  0  0  0  0  0
    1.6290   -1.8448    1.3121 H   0  0  0  0  0  0
    1.7727   -0.3101    2.1568 H   0  0  0  0  0  0
  1  2  1  0  0  0
  1  3  1  0  0  0
  1  4  2  0  0  0
  2  8  1  0  0  0
  2 13  1  0  0  0
  3  5  1  0  0  0
  5  9  1  0  0  0
  5 10  1  0  0  0
  5 11  1  0  0  0
  6  7  2  0  0  0
  7  8  1  0  0  0
  7 14  1  0  0  0
  8 12  1  0  0  0
  8 15  1  0  0  0
  9 16  1  0  0  0
  9 17  1  0  0  0
  9 18  1  0  0  0
 10 19  1  0  0  0
 10 20  1  0  0  0
 10 21  1  0  0  0
 11 22  1  0  0  0
 11 23  1  0  0  0
 11 24  1  0  0  0
 12 25  1  0  0  0
 12 26  1  0  0  0
 12 27  1  0  0  0
M  END
> <chembl_id>
CHEMBL94727

> <chembl_pref_name>
None

> <i_m_ct_stereo_status>
1

> <s_m_source_file>
sdf/inactives_sanitized.sdf

> <i_m_source_file_index>
105

> <i_lp_mmshare_version>
49012

> <i_f3d_flags>
0

> <s_epik_input>
W0NIM11DKFtDSDNdKShbQ0gzXSlPQyg9TylbTkhdW0NASF0oW0NIXT1PKVtDSDNd

> <s_epik_cmdline>
J2VwaWtfcHl0aG9uJywgJy1waHQnLCAnMC41JywgJy1waCcsICc3LjUnLCAnLW50JywgJy1tYScsICcyMDAnLCAnLWltYWUnLCAnPGluZmlsZS5tYWU+JywgJy1vbWFlJywgJzxvdXRmaWxlLm1hZT4n

> <r_lp_tautomer_probability>
1

> <r_epik_Ionization_Penalty>
  0.0006

> <r_epik_Ionization_Penalty_Charging>
  0.0000

> <r_epik_Ionization_Penalty_Neutral>
  0.0006

> <r_epik_State_Penalty>
 -0.0000

> <r_epik_Charging_Adjusted_Penalty>
0

> <i_epik_Tot_Q>
0

> <i_epik_Tot_abs_Q>
0

> <s_epik_Chemistry_Notes>
This compound has an ester and may undergo hydrolysis at high or low pH.

> <s_lp_Force_Field>
OPLS3e

> <r_lp_Energy>
9.232204

> <b_lp_Chiralities_Consistent>
1

> <s_lp_Variant>
sdf/inactives_sanitized.sdf:105-1

$$$$
sdf/inactives_sanitized.sdf:106
                    3D
 Schrodinger Suite 2020-1.
 41 43  0  0  1  0            999 V2000
   -2.0567    1.0640   -0.2896 C   0  0  0  0  0  0
   -2.7385   -0.1152    0.0528 C   0  0  0  0  0  0
   -1.9927   -1.2383    0.4396 C   0  0  0  0  0  0
   -0.6024   -1.1910    0.4814 C   0  0  0  0  0  0
    0.1041   -0.0265    0.1427 C   0  0  0  0  0  0
   -0.6557    1.0923   -0.2402 C   0  0  0  0  0  0
    1.6095    0.0196    0.1877 C   0  0  0  0  0  0
    2.2531   -1.0910    0.6625 N   0  0  0  0  0  0
    3.5696    1.2290   -0.2187 C   0  0  0  0  0  0
    2.2124    1.1656   -0.2498 N   0  0  0  0  0  0
    4.1581    2.4705   -0.6973 C   0  0  0  0  0  0
    4.6269    3.4577   -1.0781 N   0  0  0  0  0  0
   -2.8388    2.3124   -0.7155 C   0  0  0  0  0  0
   -3.5683    2.0385   -1.7979 F   0  0  0  0  0  0
   -3.6584    2.6876    0.2673 F   0  0  0  0  0  0
   -2.0475    3.3471   -1.0064 F   0  0  0  0  0  0
   -4.1214   -0.1030   -0.0098 O   0  0  0  0  0  0
    4.5376   -1.9031    1.0855 N   0  0  0  0  0  0
    5.7541   -1.2814    0.8839 C   0  0  0  0  0  0
    5.6732   -0.0688    0.3936 N   0  0  0  0  0  0
    4.3257    0.1419    0.2522 C   0  0  0  0  0  0
    3.5875   -0.9877    0.6763 C   0  0  0  0  0  0
   -4.8554   -1.2877    0.2849 C   0  0  0  0  0  0
   -6.3458   -1.0018    0.0802 C   0  0  0  0  0  0
    4.3229   -3.2514    1.6030 C   0  0  0  0  0  0
    3.8598   -4.1821    0.4675 C   0  0  0  0  0  0
    3.6627   -5.4931    0.9502 O   0  0  0  0  0  0
   -2.4743   -2.1645    0.7136 H   0  0  0  0  0  0
   -0.0793   -2.0866    0.7832 H   0  0  0  0  0  0
   -0.1487    2.0083   -0.5056 H   0  0  0  0  0  0
    6.6690   -1.8025    1.1272 H   0  0  0  0  0  0
   -4.5482   -2.1026   -0.3731 H   0  0  0  0  0  0
   -4.6793   -1.5979    1.3163 H   0  0  0  0  0  0
   -6.9465   -1.8859    0.2955 H   0  0  0  0  0  0
   -6.5500   -0.7020   -0.9482 H   0  0  0  0  0  0
   -6.6859   -0.1995    0.7359 H   0  0  0  0  0  0
    5.2713   -3.5894    2.0244 H   0  0  0  0  0  0
    3.5654   -3.1631    2.3835 H   0  0  0  0  0  0
    2.9442   -3.8107    0.0053 H   0  0  0  0  0  0
    4.5884   -4.1865   -0.3445 H   0  0  0  0  0  0
    3.3735   -6.0482    0.2220 H   0  0  0  0  0  0
  1  6  2  0  0  0
  1 13  1  0  0  0
  1  2  1  0  0  0
  2 17  1  0  0  0
  2  3  2  0  0  0
  3  4  1  0  0  0
  3 28  1  0  0  0
  4  5  2  0  0  0
  4 29  1  0  0  0
  5  7  1  0  0  0
  5  6  1  0  0  0
  6 30  1  0  0  0
  7  8  2  0  0  0
  7 10  1  0  0  0
  8 22  1  0  0  0
  9 21  1  0  0  0
  9 10  2  0  0  0
  9 11  1  0  0  0
 11 12  3  0  0  0
 13 14  1  0  0  0
 13 15  1  0  0  0
 13 16  1  0  0  0
 17 23  1  0  0  0
 18 19  1  0  0  0
 18 22  1  0  0  0
 18 25  1  0  0  0
 19 20  2  0  0  0
 19 31  1  0  0  0
 20 21  1  0  0  0
 21 22  2  0  0  0
 23 24  1  0  0  0
 23 32  1  0  0  0
 23 33  1  0  0  0
 24 34  1  0  0  0
 24 35  1  0  0  0
 24 36  1  0  0  0
 25 26  1  0  0  0
 25 37  1  0  0  0
 25 38  1  0  0  0
 26 27  1  0  0  0
 26 39  1  0  0  0
 26 40  1  0  0  0
 27 41  1  0  0  0
M  END
> <chembl_id>
CHEMBL1209533

> <chembl_pref_name>
None

> <s_m_source_file>
sdf/inactives_sanitized.sdf

> <i_m_source_file_index>
106

> <i_lp_mmshare_version>
49012

> <i_m_ct_stereo_status>
1

> <i_f3d_flags>
0

> <s_epik_input>
RkMoRikoRiljMWMoT1tDSDJdW0NIM10pW2NIXVtjSF1jKFtjSF0xKS1jKG5jMkMjTiluYyhjMjMpbihbY0hdbjMpW0NIMl1bQ0gyXVtPSF0=

> <s_epik_cmdline>
J2VwaWtfcHl0aG9uJywgJy1waHQnLCAnMC41JywgJy1waCcsICc3LjUnLCAnLW50JywgJy1tYScsICcyMDAnLCAnLWltYWUnLCAnPGluZmlsZS5tYWU+JywgJy1vbWFlJywgJzxvdXRmaWxlLm1hZT4n

> <r_lp_tautomer_probability>
1

> <r_epik_Ionization_Penalty>
  0.0000

> <r_epik_Ionization_Penalty_Charging>
  0.0000

> <r_epik_Ionization_Penalty_Neutral>
  0.0000

> <r_epik_State_Penalty>
 -0.0000

> <r_epik_Charging_Adjusted_Penalty>
0

> <i_epik_Tot_Q>
0

> <i_epik_Tot_abs_Q>
0

> <s_lp_Force_Field>
OPLS3e

> <r_lp_Energy>
30.430171

> <b_lp_Chiralities_Consistent>
1

> <s_lp_Variant>
sdf/inactives_sanitized.sdf:106-1

$$$$
sdf/inactives_sanitized.sdf:107
                    3D
 Schrodinger Suite 2020-1.
 73 74  0  0  1  0            999 V2000
   -2.7719    0.9097    2.4162 C   0  0  0  0  0  0
   -3.2348    0.9787    1.1058 N   0  0  0  0  0  0
   -1.2165    1.3035   -0.3454 C   0  0  0  0  0  0
   -2.4505    0.4276   -0.0135 C   0  0  2  0  0  0
   -1.7349    0.3598    2.7973 O   0  0  0  0  0  0
   -1.3110    2.5324   -0.3347 O   0  0  0  0  0  0
   -3.6435    1.5490    3.2194 O   0  0  0  0  0  0
   -3.4058    0.2899   -1.2320 C   0  0  0  0  0  0
   -0.0900    0.6403   -0.6568 N   0  0  0  0  0  0
    3.9655    3.1115    0.8976 C   0  0  0  0  0  0
    7.9998    7.1946    4.7403 N   0  3  0  0  0  0
    3.1960    2.4509   -0.0763 N   0  0  0  0  0  0
    5.6130    4.4273    2.7508 C   0  0  0  0  0  0
   -3.4185    1.6262    4.6248 C   0  0  0  0  0  0
    3.4419    3.5494    2.1213 C   0  0  0  0  0  0
    5.3118    3.3395    0.6097 C   0  0  0  0  0  0
    6.1280    3.9905    1.5305 C   0  0  0  0  0  0
    4.2584    4.2030    3.0405 C   0  0  0  0  0  0
    6.4976    5.0618    3.6017 O   0  0  0  0  0  0
   -4.5035    2.4284    5.3371 C   0  0  0  0  0  0
    6.0299    5.5633    4.8525 C   0  0  0  0  0  0
   -2.8435   -0.4815   -2.4526 C   0  0  0  0  0  0
    7.1917    6.2156    5.6251 C   0  0  0  0  0  0
    1.1817    1.2815   -0.9806 C   0  0  0  0  0  0
    1.8734    1.9213    0.2376 C   0  0  0  0  0  0
    7.1726    8.3998    4.2481 C   0  0  0  0  0  0
    9.2840    7.6634    5.4517 C   0  0  0  0  0  0
   -4.2274    2.9305    6.6115 C   0  0  0  0  0  0
   -5.7589    2.6559    4.7578 C   0  0  0  0  0  0
   -3.8218   -0.4151   -3.6457 C   0  0  0  0  0  0
   -2.4451   -1.9324   -2.1050 C   0  0  0  0  0  0
   -5.1912    3.6621    7.3002 C   0  0  0  0  0  0
   -6.7226    3.3881    5.4467 C   0  0  0  0  0  0
   -6.4344    3.8885    6.7142 C   0  0  0  0  0  0
   -4.0484    1.5384    0.8968 H   0  0  0  0  0  0
   -2.1296   -0.5750    0.2794 H   0  0  0  0  0  0
   -4.3202   -0.2171   -0.9171 H   0  0  0  0  0  0
   -3.7188    1.2856   -1.5540 H   0  0  0  0  0  0
   -0.1009   -0.3695   -0.6553 H   0  0  0  0  0  0
    3.7127    1.9752   -0.8020 H   0  0  0  0  0  0
   -3.3837    0.6230    5.0526 H   0  0  0  0  0  0
   -2.4524    2.1006    4.8068 H   0  0  0  0  0  0
    2.4053    3.3927    2.3785 H   0  0  0  0  0  0
    5.7349    3.0122   -0.3292 H   0  0  0  0  0  0
    7.1686    4.1575    1.2932 H   0  0  0  0  0  0
    3.8207    4.5259    3.9726 H   0  0  0  0  0  0
    5.2280    6.2876    4.6991 H   0  0  0  0  0  0
    5.6192    4.7503    5.4539 H   0  0  0  0  0  0
   -1.9387    0.0316   -2.7802 H   0  0  0  0  0  0
    7.9095    5.4581    5.9441 H   0  0  0  0  0  0
    6.8563    6.7826    6.4952 H   0  0  0  0  0  0
    1.8333    0.5190   -1.4093 H   0  0  0  0  0  0
    1.0422    2.0213   -1.7719 H   0  0  0  0  0  0
    1.9863    1.1860    1.0358 H   0  0  0  0  0  0
    1.2556    2.7218    0.6459 H   0  0  0  0  0  0
    6.8086    8.9359    5.1258 H   0  0  0  0  0  0
    6.3540    8.0162    3.6393 H   0  0  0  0  0  0
    7.8342    9.0218    3.6436 H   0  0  0  0  0  0
    8.9881    8.2252    6.3392 H   0  0  0  0  0  0
    9.8372    8.2858    4.7470 H   0  0  0  0  0  0
    9.8574    6.7725    5.7113 H   0  0  0  0  0  0
   -3.2651    2.7553    7.0704 H   0  0  0  0  0  0
   -5.9972    2.2682    3.7782 H   0  0  0  0  0  0
   -4.2447   -1.3870   -3.9004 H   0  0  0  0  0  0
   -3.3195   -0.0368   -4.5366 H   0  0  0  0  0  0
   -4.6638    0.2490   -3.4482 H   0  0  0  0  0  0
   -2.7552   -2.6479   -2.8664 H   0  0  0  0  0  0
   -2.8823   -2.2619   -1.1622 H   0  0  0  0  0  0
   -1.3622   -2.0210   -2.0115 H   0  0  0  0  0  0
   -4.9761    4.0513    8.2846 H   0  0  0  0  0  0
   -7.6901    3.5660    5.0007 H   0  0  0  0  0  0
   -7.1826    4.4558    7.2482 H   0  0  0  0  0  0
    8.2896    6.6761    3.9222 H   0  0  0  0  0  0
  1  2  1  0  0  0
  1  5  2  0  0  0
  1  7  1  0  0  0
  2  4  1  0  0  0
  2 35  1  0  0  0
  3  4  1  0  0  0
  3  6  2  0  0  0
  3  9  1  0  0  0
  4  8  1  0  0  0
  4 36  1  0  0  0
  7 14  1  0  0  0
  8 22  1  0  0  0
  8 37  1  0  0  0
  8 38  1  0  0  0
  9 24  1  0  0  0
  9 39  1  0  0  0
 10 12  1  0  0  0
 10 15  1  0  0  0
 10 16  2  0  0  0
 11 23  1  0  0  0
 11 26  1  0  0  0
 11 27  1  0  0  0
 11 73  1  0  0  0
 12 25  1  0  0  0
 12 40  1  0  0  0
 13 17  2  0  0  0
 13 19  1  0  0  0
 13 18  1  0  0  0
 14 20  1  0  0  0
 14 41  1  0  0  0
 14 42  1  0  0  0
 15 18  2  0  0  0
 15 43  1  0  0  0
 16 17  1  0  0  0
 16 44  1  0  0  0
 17 45  1  0  0  0
 18 46  1  0  0  0
 19 21  1  0  0  0
 20 28  2  0  0  0
 20 29  1  0  0  0
 21 23  1  0  0  0
 21 47  1  0  0  0
 21 48  1  0  0  0
 22 30  1  0  0  0
 22 31  1  0  0  0
 22 49  1  0  0  0
 23 50  1  0  0  0
 23 51  1  0  0  0
 24 25  1  0  0  0
 24 52  1  0  0  0
 24 53  1  0  0  0
 25 54  1  0  0  0
 25 55  1  0  0  0
 26 56  1  0  0  0
 26 57  1  0  0  0
 26 58  1  0  0  0
 27 59  1  0  0  0
 27 60  1  0  0  0
 27 61  1  0  0  0
 28 32  1  0  0  0
 28 62  1  0  0  0
 29 33  2  0  0  0
 29 63  1  0  0  0
 30 64  1  0  0  0
 30 65  1  0  0  0
 30 66  1  0  0  0
 31 67  1  0  0  0
 31 68  1  0  0  0
 31 69  1  0  0  0
 32 34  2  0  0  0
 32 70  1  0  0  0
 33 34  1  0  0  0
 33 71  1  0  0  0
 34 72  1  0  0  0
M  CHG  1  11   1
M  END
> <chembl_id>
CHEMBL61781

> <chembl_pref_name>
None

> <i_m_ct_stereo_status>
1

> <s_m_source_file>
sdf/inactives_sanitized.sdf

> <i_m_source_file_index>
107

> <i_lp_mmshare_version>
49012

> <i_f3d_flags>
0

> <s_epik_input>
W2NIXTFbY0hdW2NIXVtjSF1bY0hdYzFbQ0gyXU9DKD1PKVtOSF1bQ0BASF0oW0NIMl1bQ0hdKFtDSDNdKVtDSDNdKUMoPU8pW05IXVtDSDJdW0NIMl1bTkhdYzJbY0hdW2NIXWMoW2NIXVtjSF0yKU9bQ0gyXVtDSDJdTihbQ0gzXSlbQ0gzXQ==

> <s_epik_cmdline>
J2VwaWtfcHl0aG9uJywgJy1waHQnLCAnMC41JywgJy1waCcsICc3LjUnLCAnLW50JywgJy1tYScsICcyMDAnLCAnLWltYWUnLCAnPGluZmlsZS5tYWU+JywgJy1vbWFlJywgJzxvdXRmaWxlLm1hZT4n

> <r_epik_Ionization_Penalty>
  0.0776

> <r_epik_Ionization_Penalty_Charging>
  0.0751

> <r_epik_Ionization_Penalty_Neutral>
  0.0025

> <r_epik_State_Penalty>
  0.0662

> <r_epik_Charging_Adjusted_Penalty>
0.141341821197771

> <i_epik_Tot_Q>
1

> <i_epik_Tot_abs_Q>
1

> <s_epik_Chemistry_Notes>
This compound has an ester and may undergo hydrolysis at high or low pH.

> <s_lp_Force_Field>
OPLS3e

> <r_lp_Energy>
40.410845

> <b_lp_Chiralities_Consistent>
1

> <s_lp_Variant>
sdf/inactives_sanitized.sdf:107-1

$$$$
sdf/inactives_sanitized.sdf:108
                    3D
 Schrodinger Suite 2020-1.
 56 60  0  0  1  0            999 V2000
   -0.3885   -1.4444   -5.6197 C   0  0  0  0  0  0
    0.6523   -1.7220   -6.7083 C   0  0  0  0  0  0
   -0.4239   -2.0565   -7.6851 O   0  0  0  0  0  0
   -1.4672   -1.7902   -6.6538 C   0  0  0  0  0  0
    3.1264    1.6804   -0.6897 C   0  0  0  0  0  0
    4.0892    1.1106   -1.7161 C   0  0  0  0  0  0
    3.4407    2.4486   -1.9558 C   0  0  0  0  0  0
   -2.9894   -1.2608    1.5049 S   0  0  0  0  0  0
   -2.9481   -1.2986    2.9713 O   0  0  0  0  0  0
   -3.0746    0.0271    0.8060 O   0  0  0  0  0  0
   -1.4942   -2.2333    0.8362 C   0  0  2  0  0  0
   -0.1923   -1.5027    1.1924 C   0  0  0  0  0  0
    0.0916   -0.5941   -0.0177 C   0  0  2  0  0  0
   -0.4017   -1.4130   -1.2386 C   0  0  1  0  0  0
   -1.5239   -2.3338   -0.7025 C   0  0  0  0  0  0
    1.5749   -0.1785   -0.1386 C   0  0  0  0  0  0
   -0.9027   -0.5128   -2.3932 C   0  0  0  0  0  0
   -1.6662    0.4259   -2.1649 O   0  0  0  0  0  0
   -0.5926   -0.8766   -3.6481 N   0  0  0  0  0  0
    1.8034    1.0743   -0.5690 N   0  0  0  0  0  0
    2.4796   -0.9376    0.2127 O   0  0  0  0  0  0
    3.7102    2.1494    0.5796 C   0  0  0  0  0  0
    4.1685    2.5179    1.5763 N   0  0  0  0  0  0
   -4.3989   -2.2463    0.9992 C   0  0  0  0  0  0
   -5.1657   -1.8645   -0.1053 C   0  0  0  0  0  0
   -6.2525   -2.6429   -0.4944 C   0  0  0  0  0  0
   -6.5670   -3.7965    0.2213 C   0  0  0  0  0  0
   -5.8047   -4.1801    1.3230 C   0  0  0  0  0  0
   -4.7173   -3.4033    1.7138 C   0  0  0  0  0  0
   -0.3511   -2.1961   -4.2765 C   0  0  0  0  0  0
   -0.4372   -0.0884   -4.8914 C   0  0  0  0  0  0
    1.2057   -0.8544   -7.0702 H   0  0  0  0  0  0
    1.2803   -2.6007   -6.5541 H   0  0  0  0  0  0
   -2.0934   -0.9614   -6.9873 H   0  0  0  0  0  0
   -2.0293   -2.7069   -6.4703 H   0  0  0  0  0  0
    5.1534    1.0811   -1.4800 H   0  0  0  0  0  0
    3.7755    0.2639   -2.3275 H   0  0  0  0  0  0
    4.0544    3.3471   -1.8857 H   0  0  0  0  0  0
    2.6805    2.5236   -2.7341 H   0  0  0  0  0  0
   -1.5615   -3.2054    1.3260 H   0  0  0  0  0  0
   -0.2685   -0.9519    2.1312 H   0  0  0  0  0  0
    0.5904   -2.2481    1.3462 H   0  0  0  0  0  0
   -0.4829    0.3189    0.1580 H   0  0  0  0  0  0
    0.4086   -2.0443   -1.6118 H   0  0  0  0  0  0
   -2.5141   -2.0867   -1.0876 H   0  0  0  0  0  0
   -1.3221   -3.3628   -1.0039 H   0  0  0  0  0  0
    1.0133    1.6879   -0.7073 H   0  0  0  0  0  0
   -4.9230   -0.9731   -0.6650 H   0  0  0  0  0  0
   -6.8490   -2.3539   -1.3472 H   0  0  0  0  0  0
   -7.4105   -4.3992   -0.0815 H   0  0  0  0  0  0
   -6.0562   -5.0759    1.8714 H   0  0  0  0  0  0
   -4.1248   -3.7021    2.5663 H   0  0  0  0  0  0
    0.6044   -2.6312   -3.9807 H   0  0  0  0  0  0
   -1.1854   -2.8873   -4.1504 H   0  0  0  0  0  0
    0.4756    0.5083   -4.8932 H   0  0  0  0  0  0
   -1.3234    0.4973   -5.1388 H   0  0  0  0  0  0
  1  2  1  0  0  0
  1  4  1  0  0  0
  1 30  1  0  0  0
  1 31  1  0  0  0
  2  3  1  0  0  0
  2 32  1  0  0  0
  2 33  1  0  0  0
  3  4  1  0  0  0
  4 34  1  0  0  0
  4 35  1  0  0  0
  5  6  1  0  0  0
  5  7  1  0  0  0
  5 20  1  0  0  0
  5 22  1  0  0  0
  6  7  1  0  0  0
  6 36  1  0  0  0
  6 37  1  0  0  0
  7 38  1  0  0  0
  7 39  1  0  0  0
  8  9  2  0  0  0
  8 10  2  0  0  0
  8 11  1  0  0  0
  8 24  1  0  0  0
 11 12  1  0  0  0
 11 15  1  0  0  0
 11 40  1  0  0  0
 12 13  1  0  0  0
 12 41  1  0  0  0
 12 42  1  0  0  0
 13 14  1  0  0  0
 13 16  1  0  0  0
 13 43  1  0  0  0
 14 15  1  0  0  0
 14 17  1  0  0  0
 14 44  1  0  0  0
 15 45  1  0  0  0
 15 46  1  0  0  0
 16 20  1  0  0  0
 16 21  2  0  0  0
 17 18  2  0  0  0
 17 19  1  0  0  0
 19 30  1  0  0  0
 19 31  1  0  0  0
 20 47  1  0  0  0
 22 23  3  0  0  0
 24 25  2  0  0  0
 24 29  1  0  0  0
 25 26  1  0  0  0
 25 48  1  0  0  0
 26 27  2  0  0  0
 26 49  1  0  0  0
 27 28  1  0  0  0
 27 50  1  0  0  0
 28 29  2  0  0  0
 28 51  1  0  0  0
 29 52  1  0  0  0
 30 53  1  0  0  0
 30 54  1  0  0  0
 31 55  1  0  0  0
 31 56  1  0  0  0
M  END
> <chembl_id>
CHEMBL3093824

> <chembl_pref_name>
None

> <i_m_ct_stereo_status>
1

> <s_m_source_file>
sdf/inactives_sanitized.sdf

> <i_m_source_file_index>
108

> <i_lp_mmshare_version>
49012

> <i_f3d_flags>
0

> <s_epik_input>
W0NIMl0xT1tDSDJdQzEyW0NIMl1OKFtDSDJdMilDKD1PKVtDQEhdKFtDSDJdMylbQ0BIXShDKD1PKVtOSF1DNChDI04pW0NIMl1bQ0gyXTQpW0NIMl1bQ0BIXTNTKD1PKSg9TyljNVtjSF1bY0hdW2NIXVtjSF1bY0hdNQ==

> <s_epik_cmdline>
J2VwaWtfcHl0aG9uJywgJy1waHQnLCAnMC41JywgJy1waCcsICc3LjUnLCAnLW50JywgJy1tYScsICcyMDAnLCAnLWltYWUnLCAnPGluZmlsZS5tYWU+JywgJy1vbWFlJywgJzxvdXRmaWxlLm1hZT4n

> <r_lp_tautomer_probability>
1

> <r_epik_Ionization_Penalty>
  0.0000

> <r_epik_Ionization_Penalty_Charging>
  0.0000

> <r_epik_Ionization_Penalty_Neutral>
  0.0000

> <r_epik_State_Penalty>
 -0.0000

> <r_epik_Charging_Adjusted_Penalty>
0

> <i_epik_Tot_Q>
0

> <i_epik_Tot_abs_Q>
0

> <s_lp_Force_Field>
OPLS3e

> <r_lp_Energy>
17.516489

> <b_lp_Chiralities_Consistent>
1

> <s_lp_Variant>
sdf/inactives_sanitized.sdf:108-1

$$$$
sdf/inactives_sanitized.sdf:109
                    3D
 Schrodinger Suite 2020-1.
 61 62  0  0  1  0            999 V2000
    2.4070   -0.1821    2.5123 C   0  0  0  0  0  0
    2.2864   -0.8029    1.2735 N   0  0  0  0  0  0
    0.0998   -0.0319    0.2934 C   0  0  0  0  0  0
    1.6373   -0.1227    0.1383 C   0  0  2  0  0  0
    2.0614    0.9696    2.7904 O   0  0  0  0  0  0
   -0.5231   -0.9509    0.8292 O   0  0  0  0  0  0
    2.9662   -1.0480    3.3785 O   0  0  0  0  0  0
    2.0040   -0.8651   -1.1757 C   0  0  0  0  0  0
   -5.7791    2.5909    2.5929 C   0  0  0  0  0  0
   -0.4782    1.0737   -0.2065 N   0  0  0  0  0  0
   -4.3839    2.5034    2.5534 C   0  0  0  0  0  0
   -6.4484    3.0046    3.7581 C   0  0  0  0  0  0
   -3.7883    2.0813    1.3517 N   0  0  0  0  0  0
    3.2033   -0.6744    4.7305 C   0  0  0  0  0  0
    3.8149   -1.8434    5.4812 C   0  0  0  0  0  0
   -7.8206    3.1142    3.8766 O   0  0  0  0  0  0
   -4.3025    3.2504    4.8596 C   0  0  0  0  0  0
    3.5054   -0.8349   -1.5521 C   0  0  0  0  0  0
   -1.9075    1.3625   -0.1258 C   0  0  0  0  0  0
   -3.6493    2.8378    3.7003 C   0  0  0  0  0  0
   -5.6929    3.3324    4.8853 C   0  0  0  0  0  0
   -2.3652    1.7702    1.2865 C   0  0  0  0  0  0
    5.1325   -2.2262    5.2174 C   0  0  0  0  0  0
    3.0601   -2.5312    6.4343 C   0  0  0  0  0  0
   -8.6421    2.7737    2.7650 C   0  0  0  0  0  0
    4.0254    0.6005   -1.7825 C   0  0  0  0  0  0
    3.7941   -1.7593   -2.7547 C   0  0  0  0  0  0
    3.6227   -3.6035    7.1222 C   0  0  0  0  0  0
    5.6944   -3.2985    5.9056 C   0  0  0  0  0  0
    4.9369   -3.9823    6.8545 C   0  0  0  0  0  0
    2.5204   -1.7808    1.1838 H   0  0  0  0  0  0
    2.0299    0.8947    0.0708 H   0  0  0  0  0  0
    1.6739   -1.9034   -1.0988 H   0  0  0  0  0  0
    1.4397   -0.4446   -2.0106 H   0  0  0  0  0  0
   -6.3384    2.3325    1.7059 H   0  0  0  0  0  0
    0.1019    1.7739   -0.6458 H   0  0  0  0  0  0
   -4.3894    1.5844    0.7101 H   0  0  0  0  0  0
    3.8827    0.1783    4.7787 H   0  0  0  0  0  0
    2.2713   -0.3695    5.2102 H   0  0  0  0  0  0
   -3.7302    3.5057    5.7392 H   0  0  0  0  0  0
    4.0641   -1.2486   -0.7116 H   0  0  0  0  0  0
   -2.1242    2.1718   -0.8243 H   0  0  0  0  0  0
   -2.4866    0.5087   -0.4844 H   0  0  0  0  0  0
   -2.5710    2.7831    3.7127 H   0  0  0  0  0  0
   -6.1885    3.6533    5.7900 H   0  0  0  0  0  0
   -1.7948    2.6326    1.6345 H   0  0  0  0  0  0
   -2.1654    0.9659    1.9962 H   0  0  0  0  0  0
    5.7182   -1.6959    4.4803 H   0  0  0  0  0  0
    2.0407   -2.2393    6.6420 H   0  0  0  0  0  0
   -9.6884    2.9194    3.0328 H   0  0  0  0  0  0
   -8.5165    1.7275    2.4814 H   0  0  0  0  0  0
   -8.4318    3.4067    1.9018 H   0  0  0  0  0  0
    4.6857    0.6765   -2.6462 H   0  0  0  0  0  0
    4.5940    0.9453   -0.9184 H   0  0  0  0  0  0
    3.2115    1.3087   -1.9402 H   0  0  0  0  0  0
    4.1059   -1.2104   -3.6432 H   0  0  0  0  0  0
    2.9198   -2.3451   -3.0405 H   0  0  0  0  0  0
    4.5881   -2.4673   -2.5156 H   0  0  0  0  0  0
    3.0430   -4.1392    7.8592 H   0  0  0  0  0  0
    6.7123   -3.5988    5.7046 H   0  0  0  0  0  0
    5.3726   -4.8145    7.3877 H   0  0  0  0  0  0
  1  2  1  0  0  0
  1  5  2  0  0  0
  1  7  1  0  0  0
  2  4  1  0  0  0
  2 31  1  0  0  0
  3  4  1  0  0  0
  3  6  2  0  0  0
  3 10  1  0  0  0
  4  8  1  0  0  0
  4 32  1  0  0  0
  7 14  1  0  0  0
  8 18  1  0  0  0
  8 33  1  0  0  0
  8 34  1  0  0  0
  9 11  2  0  0  0
  9 12  1  0  0  0
  9 35  1  0  0  0
 10 19  1  0  0  0
 10 36  1  0  0  0
 11 13  1  0  0  0
 11 20  1  0  0  0
 12 16  1  0  0  0
 12 21  2  0  0  0
 13 22  1  0  0  0
 13 37  1  0  0  0
 14 15  1  0  0  0
 14 38  1  0  0  0
 14 39  1  0  0  0
 15 23  2  0  0  0
 15 24  1  0  0  0
 16 25  1  0  0  0
 17 20  2  0  0  0
 17 21  1  0  0  0
 17 40  1  0  0  0
 18 26  1  0  0  0
 18 27  1  0  0  0
 18 41  1  0  0  0
 19 22  1  0  0  0
 19 42  1  0  0  0
 19 43  1  0  0  0
 20 44  1  0  0  0
 21 45  1  0  0  0
 22 46  1  0  0  0
 22 47  1  0  0  0
 23 29  1  0  0  0
 23 48  1  0  0  0
 24 28  2  0  0  0
 24 49  1  0  0  0
 25 50  1  0  0  0
 25 51  1  0  0  0
 25 52  1  0  0  0
 26 53  1  0  0  0
 26 54  1  0  0  0
 26 55  1  0  0  0
 27 56  1  0  0  0
 27 57  1  0  0  0
 27 58  1  0  0  0
 28 30  1  0  0  0
 28 59  1  0  0  0
 29 30  2  0  0  0
 29 60  1  0  0  0
 30 61  1  0  0  0
M  END
> <chembl_id>
CHEMBL78044

> <chembl_pref_name>
None

> <i_m_ct_stereo_status>
1

> <s_m_source_file>
sdf/inactives_sanitized.sdf

> <i_m_source_file_index>
109

> <i_lp_mmshare_version>
49012

> <i_f3d_flags>
0

> <s_epik_input>
W2NIXTFbY0hdW2NIXVtjSF1bY0hdYzFbQ0gyXU9DKD1PKVtOSF1bQ0BASF0oW0NIMl1bQ0hdKFtDSDNdKVtDSDNdKUMoPU8pW05IXVtDSDJdW0NIMl1bTkhdYzJbY0hdYyhPW0NIM10pW2NIXVtjSF1bY0hdMg==

> <s_epik_cmdline>
J2VwaWtfcHl0aG9uJywgJy1waHQnLCAnMC41JywgJy1waCcsICc3LjUnLCAnLW50JywgJy1tYScsICcyMDAnLCAnLWltYWUnLCAnPGluZmlsZS5tYWU+JywgJy1vbWFlJywgJzxvdXRmaWxlLm1hZT4n

> <r_lp_tautomer_probability>
1

> <r_epik_Ionization_Penalty>
  0.0001

> <r_epik_Ionization_Penalty_Charging>
  0.0000

> <r_epik_Ionization_Penalty_Neutral>
  0.0001

> <r_epik_State_Penalty>
 -0.0000

> <r_epik_Charging_Adjusted_Penalty>
0

> <i_epik_Tot_Q>
0

> <i_epik_Tot_abs_Q>
0

> <s_epik_Chemistry_Notes>
This compound has an ester and may undergo hydrolysis at high or low pH.

> <s_lp_Force_Field>
OPLS3e

> <r_lp_Energy>
28.820195

> <b_lp_Chiralities_Consistent>
1

> <s_lp_Variant>
sdf/inactives_sanitized.sdf:109-1

$$$$
sdf/inactives_sanitized.sdf:110
                    3D
 Schrodinger Suite 2020-1.
 57 60  0  0  1  0            999 V2000
   -3.6190   -3.4641   -1.8291 C   0  0  0  0  0  0
   -2.2643   -3.1165   -2.4805 C   0  0  0  0  0  0
   -2.0884   -1.6077   -2.8242 C   0  0  0  0  0  0
   -3.4124   -1.0647   -3.4538 C   0  0  0  0  0  0
   -4.7114   -1.5760   -2.7876 C   0  0  0  0  0  0
   -4.6767   -2.9947   -2.6601 O   0  0  0  0  0  0
   -1.7572   -0.8340   -1.4988 C   0  0  0  0  0  0
   -2.6602   -0.4457   -0.7556 O   0  0  0  0  0  0
   -0.4600   -0.6356   -1.1859 N   0  0  0  0  0  0
    0.0667    0.0660   -0.0107 C   0  0  1  0  0  0
    1.6081    0.1643   -0.0536 C   0  0  0  0  0  0
    2.1521    0.8775   -1.2879 C   0  0  0  0  0  0
    2.5219    0.1401   -2.4130 C   0  0  0  0  0  0
    2.9994    0.7917   -3.5462 C   0  0  0  0  0  0
    3.1183    2.1880   -3.5758 C   0  0  0  0  0  0
    2.7470    2.9151   -2.4363 C   0  0  0  0  0  0
    2.2681    2.2674   -1.3008 C   0  0  0  0  0  0
    5.2468    5.0584   -8.1222 C   0  0  0  0  0  0
    5.9002    6.0663   -7.2958 N   0  0  0  0  0  0
    5.7340    5.9062   -5.9630 C   0  0  0  0  0  0
    4.8889    4.6781   -5.8381 C   0  0  0  0  0  0
    4.4124    4.0471   -4.6884 C   0  0  0  0  0  0
    3.6304    2.8843   -4.7953 C   0  0  0  0  0  0
    3.3455    2.3919   -6.0818 C   0  0  0  0  0  0
    3.8247    3.0326   -7.2268 C   0  0  0  0  0  0
    4.6026    4.1808   -7.0943 C   0  0  0  0  0  0
    6.1801    6.6131   -5.0590 O   0  0  0  0  0  0
    6.6772    7.1547   -7.8805 C   0  0  0  0  0  0
   -0.5603    1.3890    0.1897 C   0  0  0  0  0  0
   -1.0500    2.4259    0.3472 N   0  0  0  0  0  0
   -1.0063   -1.4422   -3.7927 N   0  0  0  0  0  0
   -3.7144   -4.5444   -1.7176 H   0  0  0  0  0  0
   -3.7011   -3.0412   -0.8263 H   0  0  0  0  0  0
   -1.4568   -3.4469   -1.8236 H   0  0  0  0  0  0
   -2.0786   -3.7310   -3.3635 H   0  0  0  0  0  0
   -3.4093    0.0273   -3.4400 H   0  0  0  0  0  0
   -3.4290   -1.2627   -4.5274 H   0  0  0  0  0  0
   -4.8801   -1.1148   -1.8139 H   0  0  0  0  0  0
   -5.5714   -1.3041   -3.4001 H   0  0  0  0  0  0
    0.2289   -1.0940   -1.7645 H   0  0  0  0  0  0
   -0.2038   -0.5224    0.8677 H   0  0  0  0  0  0
    1.9736    0.6757    0.8386 H   0  0  0  0  0  0
    2.0435   -0.8354   -0.0041 H   0  0  0  0  0  0
    2.4363   -0.9370   -2.4145 H   0  0  0  0  0  0
    3.2862    0.1970   -4.4010 H   0  0  0  0  0  0
    2.8139    3.9931   -2.4260 H   0  0  0  0  0  0
    1.9798    2.8488   -0.4370 H   0  0  0  0  0  0
    4.5279    5.5232   -8.7976 H   0  0  0  0  0  0
    5.9798    4.5306   -8.7333 H   0  0  0  0  0  0
    4.6582    4.4470   -3.7152 H   0  0  0  0  0  0
    2.7382    1.5073   -6.2054 H   0  0  0  0  0  0
    3.5873    2.6308   -8.2008 H   0  0  0  0  0  0
    7.0855    7.8306   -7.1277 H   0  0  0  0  0  0
    6.0513    7.7398   -8.5546 H   0  0  0  0  0  0
    7.5092    6.7508   -8.4579 H   0  0  0  0  0  0
   -1.3319   -1.7264   -4.7056 H   0  0  0  0  0  0
   -0.7742   -0.4620   -3.8686 H   0  0  0  0  0  0
  1  2  1  0  0  0
  1  6  1  0  0  0
  1 32  1  0  0  0
  1 33  1  0  0  0
  2  3  1  0  0  0
  2 34  1  0  0  0
  2 35  1  0  0  0
  3  4  1  0  0  0
  3  7  1  0  0  0
  3 31  1  0  0  0
  4  5  1  0  0  0
  4 36  1  0  0  0
  4 37  1  0  0  0
  5  6  1  0  0  0
  5 38  1  0  0  0
  5 39  1  0  0  0
  7  8  2  0  0  0
  7  9  1  0  0  0
  9 10  1  0  0  0
  9 40  1  0  0  0
 10 11  1  0  0  0
 10 29  1  0  0  0
 10 41  1  0  0  0
 11 12  1  0  0  0
 11 42  1  0  0  0
 11 43  1  0  0  0
 12 13  2  0  0  0
 12 17  1  0  0  0
 13 14  1  0  0  0
 13 44  1  0  0  0
 14 15  2  0  0  0
 14 45  1  0  0  0
 15 16  1  0  0  0
 15 23  1  0  0  0
 16 17  2  0  0  0
 16 46  1  0  0  0
 17 47  1  0  0  0
 18 19  1  0  0  0
 18 26  1  0  0  0
 18 48  1  0  0  0
 18 49  1  0  0  0
 19 20  1  0  0  0
 19 28  1  0  0  0
 20 21  1  0  0  0
 20 27  2  0  0  0
 21 22  2  0  0  0
 21 26  1  0  0  0
 22 23  1  0  0  0
 22 50  1  0  0  0
 23 24  2  0  0  0
 24 25  1  0  0  0
 24 51  1  0  0  0
 25 26  2  0  0  0
 25 52  1  0  0  0
 28 53  1  0  0  0
 28 54  1  0  0  0
 28 55  1  0  0  0
 29 30  3  0  0  0
 31 56  1  0  0  0
 31 57  1  0  0  0
M  END
> <chembl_id>
CHEMBL3261928

> <chembl_pref_name>
None

> <i_m_ct_stereo_status>
1

> <s_m_source_file>
sdf/inactives_sanitized.sdf

> <i_m_source_file_index>
110

> <i_lp_mmshare_version>
49012

> <i_f3d_flags>
0

> <s_epik_input>
W0NIMl0xW0NIMl1PW0NIMl1bQ0gyXUMxKFtOSDJdKUMoPU8pW05IXVtDQEhdKEMjTilbQ0gyXWMyW2NIXVtjSF1jKFtjSF1bY0hdMiktYyhbY0hdMylbY0hdW2NIXWMoYzM0KVtDSDJdTihDND1PKVtDSDNd

> <s_epik_cmdline>
J2VwaWtfcHl0aG9uJywgJy1waHQnLCAnMC41JywgJy1waCcsICc3LjUnLCAnLW50JywgJy1tYScsICcyMDAnLCAnLWltYWUnLCAnPGluZmlsZS5tYWU+JywgJy1vbWFlJywgJzxvdXRmaWxlLm1hZT4n

> <r_epik_Ionization_Penalty>
  0.2050

> <r_epik_Ionization_Penalty_Charging>
  0.0000

> <r_epik_Ionization_Penalty_Neutral>
  0.2050

> <r_epik_State_Penalty>
  0.1949

> <r_epik_Charging_Adjusted_Penalty>
0.194903483686102

> <i_epik_Tot_Q>
0

> <i_epik_Tot_abs_Q>
0

> <s_lp_Force_Field>
OPLS3e

> <r_lp_Energy>
30.835116

> <b_lp_Chiralities_Consistent>
1

> <s_lp_Variant>
sdf/inactives_sanitized.sdf:110-1

$$$$
sdf/inactives_sanitized.sdf:111
                    3D
 Schrodinger Suite 2020-1.
 65 68  0  0  1  0            999 V2000
   -2.5021    0.9920   -0.4022 C   0  0  0  0  0  0
   -3.2222    2.3796   -0.1869 C   0  0  0  0  0  0
   -3.7240    3.1568   -1.4231 C   0  0  0  0  0  0
   -4.2978    2.2786   -2.5378 C   0  0  0  0  0  0
   -3.2820    1.2162   -2.9640 C   0  0  0  0  0  0
   -2.7554    0.3324   -1.8126 C   0  0  0  0  0  0
   -6.5706   -1.5484    1.7525 C   0  0  0  0  0  0
   -5.4095   -1.8535    2.4754 C   0  0  0  0  0  0
   -4.2021   -1.2786    2.0500 C   0  0  0  0  0  0
   -4.1319   -0.4245    0.9457 C   0  0  0  0  0  0
   -5.3128   -0.1454    0.2463 C   0  0  0  0  0  0
   -6.5237   -0.7033    0.6466 C   0  0  0  0  0  0
   -2.8686    0.0655    0.6525 O   0  0  0  0  0  0
   -0.9807    1.3103   -0.3680 C   0  0  0  0  0  0
   -0.2442    0.7006    0.5809 N   0  0  0  0  0  0
   -0.4882    2.0897   -1.1889 O   0  0  0  0  0  0
    1.1962    0.8603    0.7678 C   0  0  0  0  0  0
    2.0364    0.1295   -0.2965 C   0  0  0  0  0  0
    3.4706    0.2055   -0.0378 N   0  0  0  0  0  0
    4.2815    1.2524   -0.5116 C   0  0  0  0  0  0
    5.6320    1.2236   -0.1616 C   0  0  0  0  0  0
    6.4934    2.2277   -0.5943 C   0  0  0  0  0  0
    6.0202    3.2791   -1.3785 C   0  0  0  0  0  0
    4.6612    3.3132   -1.7269 C   0  0  0  0  0  0
    3.7989    2.3077   -1.2970 C   0  0  0  0  0  0
    6.9478    4.2295   -1.7599 O   0  0  0  0  0  0
    6.5251    5.3336   -2.5528 C   0  0  0  0  0  0
   -5.4555   -2.7629    3.6613 C   0  0  0  0  0  0
   -4.3823   -3.6186    3.9512 C   0  0  0  0  0  0
   -4.4243   -4.4674    5.0543 C   0  0  0  0  0  0
   -5.5431   -4.4675    5.8816 C   0  0  0  0  0  0
   -6.6185   -3.6264    5.6133 C   0  0  0  0  0  0
   -6.5733   -2.7800    4.5087 C   0  0  0  0  0  0
   -2.7472    3.0061    0.5712 H   0  0  0  0  0  0
   -4.1646    2.1662    0.3100 H   0  0  0  0  0  0
   -4.4619    3.9016   -1.1214 H   0  0  0  0  0  0
   -2.8860    3.7254   -1.8290 H   0  0  0  0  0  0
   -5.2368    1.8222   -2.2323 H   0  0  0  0  0  0
   -4.5476    2.9032   -3.3965 H   0  0  0  0  0  0
   -3.7075    0.5904   -3.7499 H   0  0  0  0  0  0
   -2.4293    1.7193   -3.4224 H   0  0  0  0  0  0
   -1.9770   -0.3723   -2.1126 H   0  0  0  0  0  0
   -3.5907   -0.3513   -1.6870 H   0  0  0  0  0  0
   -7.5214   -1.9761    2.0353 H   0  0  0  0  0  0
   -3.2909   -1.4849    2.5926 H   0  0  0  0  0  0
   -5.3159    0.5005   -0.6102 H   0  0  0  0  0  0
   -7.4271   -0.4824    0.0974 H   0  0  0  0  0  0
   -0.7143    0.0819    1.2261 H   0  0  0  0  0  0
    1.4570    1.9204    0.7976 H   0  0  0  0  0  0
    1.4465    0.4735    1.7564 H   0  0  0  0  0  0
    1.7724   -0.9281   -0.3250 H   0  0  0  0  0  0
    1.8100    0.5109   -1.2918 H   0  0  0  0  0  0
    3.8376   -0.3635    0.7113 H   0  0  0  0  0  0
    6.0244    0.4207    0.4462 H   0  0  0  0  0  0
    7.5369    2.1890   -0.3174 H   0  0  0  0  0  0
    4.2554    4.1120   -2.3286 H   0  0  0  0  0  0
    2.7593    2.3748   -1.5787 H   0  0  0  0  0  0
    7.3816    5.9735   -2.7651 H   0  0  0  0  0  0
    5.7826    5.9388   -2.0307 H   0  0  0  0  0  0
    6.1134    5.0065   -3.5089 H   0  0  0  0  0  0
   -3.5096   -3.6413    3.3152 H   0  0  0  0  0  0
   -3.5934   -5.1244    5.2655 H   0  0  0  0  0  0
   -5.5774   -5.1252    6.7376 H   0  0  0  0  0  0
   -7.4836   -3.6287    6.2599 H   0  0  0  0  0  0
   -7.4139   -2.1275    4.3233 H   0  0  0  0  0  0
  1  6  1  0  0  0
  1 13  1  0  0  0
  1 14  1  0  0  0
  1  2  1  0  0  0
  2  3  1  0  0  0
  2 34  1  0  0  0
  2 35  1  0  0  0
  3  4  1  0  0  0
  3 36  1  0  0  0
  3 37  1  0  0  0
  4  5  1  0  0  0
  4 38  1  0  0  0
  4 39  1  0  0  0
  5  6  1  0  0  0
  5 40  1  0  0  0
  5 41  1  0  0  0
  6 42  1  0  0  0
  6 43  1  0  0  0
  7 12  2  0  0  0
  7  8  1  0  0  0
  7 44  1  0  0  0
  8  9  2  0  0  0
  8 28  1  0  0  0
  9 10  1  0  0  0
  9 45  1  0  0  0
 10 11  2  0  0  0
 10 13  1  0  0  0
 11 12  1  0  0  0
 11 46  1  0  0  0
 12 47  1  0  0  0
 14 16  2  0  0  0
 14 15  1  0  0  0
 15 17  1  0  0  0
 15 48  1  0  0  0
 17 18  1  0  0  0
 17 49  1  0  0  0
 17 50  1  0  0  0
 18 19  1  0  0  0
 18 51  1  0  0  0
 18 52  1  0  0  0
 19 20  1  0  0  0
 19 53  1  0  0  0
 20 21  2  0  0  0
 20 25  1  0  0  0
 21 22  1  0  0  0
 21 54  1  0  0  0
 22 23  2  0  0  0
 22 55  1  0  0  0
 23 24  1  0  0  0
 23 26  1  0  0  0
 24 25  2  0  0  0
 24 56  1  0  0  0
 25 57  1  0  0  0
 26 27  1  0  0  0
 27 58  1  0  0  0
 27 59  1  0  0  0
 27 60  1  0  0  0
 28 29  2  0  0  0
 28 33  1  0  0  0
 29 30  1  0  0  0
 29 61  1  0  0  0
 30 31  2  0  0  0
 30 62  1  0  0  0
 31 32  1  0  0  0
 31 63  1  0  0  0
 32 33  2  0  0  0
 32 64  1  0  0  0
 33 65  1  0  0  0
M  END
> <chembl_id>
CHEMBL206244

> <chembl_pref_name>
None

> <s_m_source_file>
sdf/inactives_sanitized.sdf

> <i_m_source_file_index>
111

> <i_lp_mmshare_version>
49012

> <i_m_ct_stereo_status>
1

> <i_f3d_flags>
0

> <s_epik_input>
W2NIXTFbY0hdYyhPW0NIM10pW2NIXVtjSF1jMVtOSF1bQ0gyXVtDSDJdW05IXUMoPU8pQzIoW0NIMl1bQ0gyXVtDSDJdW0NIMl1bQ0gyXTIpT2MoW2NIXTMpW2NIXVtjSF1bY0hdYzMtYzRbY0hdW2NIXVtjSF1bY0hdW2NIXTQ=

> <s_epik_cmdline>
J2VwaWtfcHl0aG9uJywgJy1waHQnLCAnMC41JywgJy1waCcsICc3LjUnLCAnLW50JywgJy1tYScsICcyMDAnLCAnLWltYWUnLCAnPGluZmlsZS5tYWU+JywgJy1vbWFlJywgJzxvdXRmaWxlLm1hZT4n

> <r_lp_tautomer_probability>
1

> <r_epik_Ionization_Penalty>
  0.0016

> <r_epik_Ionization_Penalty_Charging>
  0.0000

> <r_epik_Ionization_Penalty_Neutral>
  0.0016

> <r_epik_State_Penalty>
 -0.0000

> <r_epik_Charging_Adjusted_Penalty>
0

> <i_epik_Tot_Q>
0

> <i_epik_Tot_abs_Q>
0

> <s_lp_Force_Field>
OPLS3e

> <r_lp_Energy>
57.456238

> <b_lp_Chiralities_Consistent>
1

> <s_lp_Variant>
sdf/inactives_sanitized.sdf:111-1

$$$$
sdf/inactives_sanitized.sdf:112
                    3D
 Schrodinger Suite 2020-1.
 62 65  0  0  1  0            999 V2000
   -5.1688   -8.9202    0.2214 C   0  0  0  0  0  0
   -4.3723   -7.6393    0.0918 C   0  0  0  0  0  0
   -3.8226   -8.8004    0.8959 C   0  0  0  0  0  0
   -2.2198   -3.7994   -0.4561 C   0  0  0  0  0  0
   -3.2585   -4.9414   -0.4897 C   0  0  0  0  0  0
   -3.7773   -5.3079    0.9243 C   0  0  0  0  0  0
   -4.8704   -6.3942    0.8627 C   0  0  0  0  0  0
   -3.7163   -7.3278   -1.2739 C   0  0  0  0  0  0
   -2.6598   -6.2127   -1.1362 C   0  0  0  0  0  0
   -2.7642   -2.5269    0.0052 N   0  0  0  0  0  0
   -0.6037   -1.3473   -0.1710 C   0  0  0  0  0  0
   -1.9778   -1.3710    0.1223 C   0  0  0  0  0  0
   -2.6331   -0.2569    0.5434 N   0  0  0  0  0  0
   -1.8915    0.8728    0.6653 C   0  0  0  0  0  0
   -0.5657    0.9969    0.4082 N   0  0  0  0  0  0
    0.0728   -0.1332   -0.0157 C   0  0  0  0  0  0
   -2.5857    2.0681    1.1129 C   0  0  0  0  0  0
   -3.1386    3.0205    1.4691 N   0  0  0  0  0  0
    1.4278   -0.0914   -0.2956 O   0  0  0  0  0  0
    2.1511    1.1415   -0.2278 C   0  0  0  0  0  0
    1.8888    2.0236   -1.4685 C   0  0  0  0  0  0
    2.5792    3.4082   -1.4336 C   0  0  2  0  0  0
    2.1168    4.2843   -2.6185 C   0  0  0  0  0  0
    2.7111    5.7016   -2.5359 C   0  0  0  0  0  0
    4.2532    5.5819   -2.5324 N   0  3  2  0  0  0
    4.7726    4.7059   -1.3682 C   0  0  0  0  0  0
    4.1220    3.3145   -1.4757 C   0  0  0  0  0  0
    4.8943    6.9822   -2.4726 C   0  0  0  0  0  0
   -6.0706   -8.9168    0.8346 H   0  0  0  0  0  0
   -5.2692   -9.5641   -0.6529 H   0  0  0  0  0  0
   -2.9774   -9.3619    0.4964 H   0  0  0  0  0  0
   -3.7781   -8.7110    1.9819 H   0  0  0  0  0  0
   -1.3835   -4.0787    0.1869 H   0  0  0  0  0  0
   -1.7818   -3.6617   -1.4460 H   0  0  0  0  0  0
   -4.1100   -4.6239   -1.0954 H   0  0  0  0  0  0
   -4.1712   -4.4216    1.4231 H   0  0  0  0  0  0
   -2.9478   -5.6311    1.5558 H   0  0  0  0  0  0
   -5.1923   -6.6572    1.8715 H   0  0  0  0  0  0
   -5.7510   -5.9913    0.3607 H   0  0  0  0  0  0
   -3.2631   -8.2206   -1.7074 H   0  0  0  0  0  0
   -4.4876   -7.0094   -1.9767 H   0  0  0  0  0  0
   -2.2538   -5.9712   -2.1196 H   0  0  0  0  0  0
   -1.8004   -6.5611   -0.5606 H   0  0  0  0  0  0
   -3.7506   -2.4739    0.2163 H   0  0  0  0  0  0
   -0.0711   -2.2250   -0.5058 H   0  0  0  0  0  0
    1.9334    1.6775    0.6980 H   0  0  0  0  0  0
    3.2068    0.8765   -0.1793 H   0  0  0  0  0  0
    2.1930    1.4806   -2.3647 H   0  0  0  0  0  0
    0.8141    2.1772   -1.5686 H   0  0  0  0  0  0
    2.2904    3.9176   -0.5114 H   0  0  0  0  0  0
    2.3697    3.8103   -3.5687 H   0  0  0  0  0  0
    1.0277    4.3501   -2.6251 H   0  0  0  0  0  0
    2.4408    6.3060   -3.4032 H   0  0  0  0  0  0
    2.4216    6.2241   -1.6222 H   0  0  0  0  0  0
    5.8577    4.6544   -1.4696 H   0  0  0  0  0  0
    4.5172    5.2155   -0.4373 H   0  0  0  0  0  0
    4.4869    2.6876   -0.6625 H   0  0  0  0  0  0
    4.4477    2.8044   -2.3837 H   0  0  0  0  0  0
    4.5893    7.4566   -1.5382 H   0  0  0  0  0  0
    4.5371    7.5374   -3.3409 H   0  0  0  0  0  0
    5.9754    6.8445   -2.5204 H   0  0  0  0  0  0
    4.5274    5.1364   -3.3970 H   0  0  0  0  0  0
  1  2  1  0  0  0
  1  3  1  0  0  0
  1 29  1  0  0  0
  1 30  1  0  0  0
  2  7  1  0  0  0
  2  8  1  0  0  0
  2  3  1  0  0  0
  3 31  1  0  0  0
  3 32  1  0  0  0
  4  5  1  0  0  0
  4 10  1  0  0  0
  4 33  1  0  0  0
  4 34  1  0  0  0
  5  9  1  0  0  0
  5  6  1  0  0  0
  5 35  1  0  0  0
  6  7  1  0  0  0
  6 36  1  0  0  0
  6 37  1  0  0  0
  7 38  1  0  0  0
  7 39  1  0  0  0
  8  9  1  0  0  0
  8 40  1  0  0  0
  8 41  1  0  0  0
  9 42  1  0  0  0
  9 43  1  0  0  0
 10 12  1  0  0  0
 10 44  1  0  0  0
 11 16  2  0  0  0
 11 12  1  0  0  0
 11 45  1  0  0  0
 12 13  2  0  0  0
 13 14  1  0  0  0
 14 15  2  0  0  0
 14 17  1  0  0  0
 15 16  1  0  0  0
 16 19  1  0  0  0
 17 18  3  0  0  0
 19 20  1  0  0  0
 20 21  1  0  0  0
 20 46  1  0  0  0
 20 47  1  0  0  0
 21 22  1  0  0  0
 21 48  1  0  0  0
 21 49  1  0  0  0
 22 23  1  0  0  0
 22 27  1  0  0  0
 22 50  1  0  0  0
 23 24  1  0  0  0
 23 51  1  0  0  0
 23 52  1  0  0  0
 24 25  1  0  0  0
 24 53  1  0  0  0
 24 54  1  0  0  0
 25 26  1  0  0  0
 25 28  1  0  0  0
 25 62  1  0  0  0
 26 27  1  0  0  0
 26 55  1  0  0  0
 26 56  1  0  0  0
 27 57  1  0  0  0
 27 58  1  0  0  0
 28 59  1  0  0  0
 28 60  1  0  0  0
 28 61  1  0  0  0
M  CHG  1  25   1
M  END
> <chembl_id>
CHEMBL496657

> <chembl_pref_name>
None

> <s_m_source_file>
sdf/inactives_sanitized.sdf

> <i_m_source_file_index>
112

> <i_lp_mmshare_version>
49012

> <i_m_ct_stereo_status>
1

> <i_f3d_flags>
0

> <s_epik_input>
W0NIMl0xW0NIMl1DMTJbQ0gyXVtDSDJdW0NIXShbQ0gyXVtDSDJdMilbQ0gyXVtOSF1jM1tjSF1jKG5jKG4zKUMjTilPW0NIMl1bQ0gyXVtDSF00W0NIMl1bQ0gyXU4oW0NIM10pW0NIMl1bQ0gyXTQ=

> <s_epik_cmdline>
J2VwaWtfcHl0aG9uJywgJy1waHQnLCAnMC41JywgJy1waCcsICc3LjUnLCAnLW50JywgJy1tYScsICcyMDAnLCAnLWltYWUnLCAnPGluZmlsZS5tYWU+JywgJy1vbWFlJywgJzxvdXRmaWxlLm1hZT4n

> <r_lp_tautomer_probability>
1

> <r_epik_Ionization_Penalty>
  0.0026

> <r_epik_Ionization_Penalty_Charging>
  0.0026

> <r_epik_Ionization_Penalty_Neutral>
  0.0000

> <r_epik_State_Penalty>
 -0.0000

> <r_epik_Charging_Adjusted_Penalty>
0.00257462680802783

> <i_epik_Tot_Q>
1

> <i_epik_Tot_abs_Q>
1

> <s_lp_Force_Field>
OPLS3e

> <r_lp_Energy>
33.880052

> <b_lp_Chiralities_Consistent>
1

> <s_lp_Variant>
sdf/inactives_sanitized.sdf:112-1

$$$$
sdf/inactives_sanitized.sdf:113
                    3D
 Schrodinger Suite 2020-1.
 69 70  0  0  1  0            999 V2000
   -3.7606   -4.3114   -6.3839 C   0  0  0  0  0  0
   -4.4666   -3.3027   -5.7312 C   0  0  0  0  0  0
   -3.7868   -2.1885   -5.2460 C   0  0  0  0  0  0
   -2.4038   -2.0891   -5.4163 C   0  0  0  0  0  0
   -1.7001   -3.1030   -6.0703 C   0  0  0  0  0  0
   -2.3808   -4.2169   -6.5553 C   0  0  0  0  0  0
   -1.6648   -0.8737   -4.8887 C   0  0  0  0  0  0
   -1.3530   -1.0668   -3.5146 O   0  0  0  0  0  0
   -0.7684   -0.0884   -2.7971 C   0  0  0  0  0  0
   -0.5793   -0.5389   -1.4954 N   0  0  0  0  0  0
   -0.4607    1.0223   -3.2380 O   0  0  0  0  0  0
    0.0820    0.3042   -0.4841 C   0  0  2  0  0  0
    1.6117    0.4354   -0.6829 C   0  0  0  0  0  0
   -0.2214   -0.2626    0.9318 C   0  0  0  0  0  0
    2.1514    1.5490   -0.1613 N   0  0  0  0  0  0
    2.2545   -0.4589   -1.2343 O   0  0  0  0  0  0
   -1.6952   -0.1423    1.3867 C   0  0  0  0  0  0
   -2.1434    1.3302    1.5213 C   0  0  0  0  0  0
   -1.9432   -0.9505    2.6795 C   0  0  0  0  0  0
    3.5714    1.9025   -0.0706 C   0  0  2  0  0  0
    4.4254    0.7637    0.3276 C   0  0  0  0  0  0
    3.7767    3.1106    0.8743 C   0  0  0  0  0  0
    5.0954   -0.1267    0.6407 N   0  0  0  0  0  0
    3.1534    2.9150    2.2545 C   0  0  0  0  0  0
    1.8407    3.3275    2.4871 C   0  0  0  0  0  0
    1.2366    3.0813    3.7156 C   0  0  0  0  0  0
    1.9429    2.4253    4.7350 C   0  0  0  0  0  0
    3.2662    2.0443    4.4997 C   0  0  0  0  0  0
    3.8712    2.2820    3.2686 C   0  0  0  0  0  0
    1.4502    2.1005    5.9884 O   0  0  0  0  0  0
    0.0905    2.2834    6.4204 C   0  0  0  0  0  0
   -0.9167    1.4896    5.5506 C   0  0  0  0  0  0
   -0.2795    3.7810    6.5546 C   0  0  0  0  0  0
    0.1016    1.6626    7.8332 C   0  0  0  0  0  0
   -4.2882   -5.1754   -6.7602 H   0  0  0  0  0  0
   -5.5358   -3.3844   -5.6019 H   0  0  0  0  0  0
   -4.3329   -1.4061   -4.7390 H   0  0  0  0  0  0
   -0.6302   -3.0298   -6.2022 H   0  0  0  0  0  0
   -1.8416   -5.0037   -7.0619 H   0  0  0  0  0  0
   -0.7537   -0.7136   -5.4680 H   0  0  0  0  0  0
   -2.2863    0.0134   -5.0242 H   0  0  0  0  0  0
   -0.7841   -1.5008   -1.2680 H   0  0  0  0  0  0
   -0.3409    1.3102   -0.5415 H   0  0  0  0  0  0
    0.3965    0.2363    1.6823 H   0  0  0  0  0  0
    0.0855   -1.3103    0.9633 H   0  0  0  0  0  0
    1.5145    2.2516    0.1849 H   0  0  0  0  0  0
   -2.3168   -0.6004    0.6164 H   0  0  0  0  0  0
   -2.6970    1.5249    2.4395 H   0  0  0  0  0  0
   -2.7966    1.6084    0.6938 H   0  0  0  0  0  0
   -1.2970    2.0176    1.5124 H   0  0  0  0  0  0
   -2.2769   -0.3317    3.5119 H   0  0  0  0  0  0
   -1.0453   -1.4685    3.0177 H   0  0  0  0  0  0
   -2.7088   -1.7100    2.5184 H   0  0  0  0  0  0
    3.9053    2.1882   -1.0692 H   0  0  0  0  0  0
    4.8400    3.3302    0.9852 H   0  0  0  0  0  0
    3.3469    4.0072    0.4240 H   0  0  0  0  0  0
    1.2754    3.8171    1.7076 H   0  0  0  0  0  0
    0.2186    3.4055    3.8302 H   0  0  0  0  0  0
    3.8260    1.5411    5.2746 H   0  0  0  0  0  0
    4.8871    1.9554    3.0997 H   0  0  0  0  0  0
   -1.9049    1.4705    6.0116 H   0  0  0  0  0  0
   -0.5959    0.4539    5.4318 H   0  0  0  0  0  0
   -1.0506    1.8937    4.5506 H   0  0  0  0  0  0
   -0.3687    4.3018    5.6056 H   0  0  0  0  0  0
    0.4713    4.3161    7.1375 H   0  0  0  0  0  0
   -1.2342    3.9041    7.0676 H   0  0  0  0  0  0
   -0.8784    1.7203    8.3090 H   0  0  0  0  0  0
    0.8133    2.1694    8.4868 H   0  0  0  0  0  0
    0.3904    0.6109    7.8048 H   0  0  0  0  0  0
  1  6  2  0  0  0
  1  2  1  0  0  0
  1 35  1  0  0  0
  2  3  2  0  0  0
  2 36  1  0  0  0
  3  4  1  0  0  0
  3 37  1  0  0  0
  4  5  2  0  0  0
  4  7  1  0  0  0
  5  6  1  0  0  0
  5 38  1  0  0  0
  6 39  1  0  0  0
  7  8  1  0  0  0
  7 40  1  0  0  0
  7 41  1  0  0  0
  8  9  1  0  0  0
  9 10  1  0  0  0
  9 11  2  0  0  0
 10 12  1  0  0  0
 10 42  1  0  0  0
 12 13  1  0  0  0
 12 14  1  0  0  0
 12 43  1  0  0  0
 13 15  1  0  0  0
 13 16  2  0  0  0
 14 17  1  0  0  0
 14 44  1  0  0  0
 14 45  1  0  0  0
 15 20  1  0  0  0
 15 46  1  0  0  0
 17 18  1  0  0  0
 17 19  1  0  0  0
 17 47  1  0  0  0
 18 48  1  0  0  0
 18 49  1  0  0  0
 18 50  1  0  0  0
 19 51  1  0  0  0
 19 52  1  0  0  0
 19 53  1  0  0  0
 20 21  1  0  0  0
 20 22  1  0  0  0
 20 54  1  0  0  0
 21 23  3  0  0  0
 22 24  1  0  0  0
 22 55  1  0  0  0
 22 56  1  0  0  0
 24 25  2  0  0  0
 24 29  1  0  0  0
 25 26  1  0  0  0
 25 57  1  0  0  0
 26 27  2  0  0  0
 26 58  1  0  0  0
 27 28  1  0  0  0
 27 30  1  0  0  0
 28 29  2  0  0  0
 28 59  1  0  0  0
 29 60  1  0  0  0
 30 31  1  0  0  0
 31 32  1  0  0  0
 31 33  1  0  0  0
 31 34  1  0  0  0
 32 61  1  0  0  0
 32 62  1  0  0  0
 32 63  1  0  0  0
 33 64  1  0  0  0
 33 65  1  0  0  0
 33 66  1  0  0  0
 34 67  1  0  0  0
 34 68  1  0  0  0
 34 69  1  0  0  0
M  END
> <chembl_id>
CHEMBL439156

> <chembl_pref_name>
None

> <i_m_ct_stereo_status>
1

> <s_m_source_file>
sdf/inactives_sanitized.sdf

> <i_m_source_file_index>
113

> <i_lp_mmshare_version>
49012

> <i_f3d_flags>
0

> <s_epik_input>
W2NIXTFbY0hdW2NIXVtjSF1bY0hdYzFbQ0gyXU9DKD1PKVtOSF1bQ0BASF0oW0NIMl1bQ0hdKFtDSDNdKVtDSDNdKUMoPU8pW05IXVtDQEhdKEMjTilbQ0gyXWMyW2NIXVtjSF1jKFtjSF1bY0hdMilPQyhbQ0gzXSkoW0NIM10pW0NIM10=

> <s_epik_cmdline>
J2VwaWtfcHl0aG9uJywgJy1waHQnLCAnMC41JywgJy1waCcsICc3LjUnLCAnLW50JywgJy1tYScsICcyMDAnLCAnLWltYWUnLCAnPGluZmlsZS5tYWU+JywgJy1vbWFlJywgJzxvdXRmaWxlLm1hZT4n

> <r_lp_tautomer_probability>
1

> <r_epik_Ionization_Penalty>
  0.0000

> <r_epik_Ionization_Penalty_Charging>
  0.0000

> <r_epik_Ionization_Penalty_Neutral>
  0.0000

> <r_epik_State_Penalty>
 -0.0000

> <r_epik_Charging_Adjusted_Penalty>
0

> <i_epik_Tot_Q>
0

> <i_epik_Tot_abs_Q>
0

> <s_epik_Chemistry_Notes>
This compound has an ester and may undergo hydrolysis at high or low pH.

> <s_lp_Force_Field>
OPLS3e

> <r_lp_Energy>
30.993579

> <b_lp_Chiralities_Consistent>
1

> <s_lp_Variant>
sdf/inactives_sanitized.sdf:113-1

$$$$
sdf/inactives_sanitized.sdf:114
                    3D
 Schrodinger Suite 2020-1.
 43 44  0  0  1  0            999 V2000
    5.1739   -0.2383   -3.2847 C   0  0  0  0  0  0
    3.6661   -0.1278   -3.2006 C   0  0  0  0  0  0
    4.3319   -1.4857   -3.3373 C   0  0  0  0  0  0
   -0.3584    2.0691   -3.8812 C   0  0  0  0  0  0
    0.2763    3.3039   -3.9958 C   0  0  0  0  0  0
    0.6940    3.9936   -2.8599 C   0  0  0  0  0  0
    0.4749    3.4448   -1.5994 C   0  0  0  0  0  0
   -0.1567    2.2039   -1.4742 C   0  0  0  0  0  0
   -0.5715    1.5172   -2.6218 C   0  0  0  0  0  0
   -0.3954    1.6205   -0.0772 C   0  0  2  0  0  0
    0.1287    0.2583    0.0726 N   0  0  1  0  0  0
    1.6010    0.0768    0.0410 C   0  0  2  0  0  0
    2.0147   -0.3943   -1.3749 C   0  0  0  0  0  0
    3.0803    0.2238   -1.9108 N   0  0  0  0  0  0
    1.4036   -1.3075   -1.9340 O   0  0  0  0  0  0
    2.9383    0.3711   -4.3807 C   0  0  0  0  0  0
    2.3703    0.7610   -5.3100 N   0  0  0  0  0  0
    2.0312   -0.9485    1.1210 C   0  0  0  0  0  0
   -1.8860    1.6725    0.3452 C   0  0  0  0  0  0
   -2.0494    1.2474    1.5994 F   0  0  0  0  0  0
   -2.3558    2.9198    0.2954 F   0  0  0  0  0  0
   -2.6672    0.9205   -0.4326 F   0  0  0  0  0  0
    3.8808   -1.0512    1.3135 S   0  0  1  0  0  0
    0.5801    4.0525   -5.7191 Br  0  0  0  0  0  0
    4.1767    0.5878    2.1313 C   0  0  0  0  0  0
    4.1579   -2.1267    2.3651 O   0  0  0  0  0  0
    5.7719   -0.0549   -2.3914 H   0  0  0  0  0  0
    5.6744    0.0925   -4.1952 H   0  0  0  0  0  0
    4.2486   -2.0204   -4.2841 H   0  0  0  0  0  0
    4.3479   -2.1599   -2.4799 H   0  0  0  0  0  0
   -0.6770    1.5367   -4.7652 H   0  0  0  0  0  0
    1.1848    4.9510   -2.9552 H   0  0  0  0  0  0
    0.7978    3.9866   -0.7223 H   0  0  0  0  0  0
   -1.0570    0.5555   -2.5388 H   0  0  0  0  0  0
    0.1462    2.2354    0.6441 H   0  0  0  0  0  0
   -0.3628   -0.3014    0.7553 H   0  0  0  0  0  0
    2.0887    1.0267    0.2650 H   0  0  0  0  0  0
    3.4784    1.0186   -1.4321 H   0  0  0  0  0  0
    1.6039   -0.6947    2.0922 H   0  0  0  0  0  0
    1.6600   -1.9451    0.8752 H   0  0  0  0  0  0
    3.9783    1.4121    1.4475 H   0  0  0  0  0  0
    5.2153    0.6562    2.4542 H   0  0  0  0  0  0
    3.5399    0.6967    3.0091 H   0  0  0  0  0  0
  1  3  1  0  0  0
  1  2  1  0  0  0
  1 27  1  0  0  0
  1 28  1  0  0  0
  2 14  1  0  0  0
  2 16  1  0  0  0
  2  3  1  0  0  0
  3 29  1  0  0  0
  3 30  1  0  0  0
  4  5  2  0  0  0
  4  9  1  0  0  0
  4 31  1  0  0  0
  5  6  1  0  0  0
  5 24  1  0  0  0
  6  7  2  0  0  0
  6 32  1  0  0  0
  7  8  1  0  0  0
  7 33  1  0  0  0
  8  9  2  0  0  0
  8 10  1  0  0  0
  9 34  1  0  0  0
 10 11  1  0  0  0
 10 19  1  0  0  0
 10 35  1  0  0  0
 11 12  1  0  0  0
 11 36  1  0  0  0
 12 13  1  0  0  0
 12 18  1  0  0  0
 12 37  1  0  0  0
 13 14  1  0  0  0
 13 15  2  0  0  0
 14 38  1  0  0  0
 16 17  3  0  0  0
 18 23  1  0  0  0
 18 39  1  0  0  0
 18 40  1  0  0  0
 19 20  1  0  0  0
 19 21  1  0  0  0
 19 22  1  0  0  0
 23 25  1  0  0  0
 23 26  2  0  0  0
 25 41  1  0  0  0
 25 42  1  0  0  0
 25 43  1  0  0  0
M  END
> <chembl_id>
CHEMBL436636

> <chembl_pref_name>
None

> <i_m_ct_stereo_status>
1

> <s_m_source_file>
sdf/inactives_sanitized.sdf

> <i_m_source_file_index>
114

> <i_lp_mmshare_version>
49012

> <i_f3d_flags>
0

> <s_epik_input>
W0NIMl0xW0NIMl1DMShDI04pW05IXUMoPU8pW0NASF0oW0NIMl1bUytdKFtPLV0pW0NIM10pW05IXVtDQEhdKEMoRikoRilGKWMoW2NIXVtjSF0yKVtjSF1bY0hdYzJCcg==

> <s_epik_cmdline>
J2VwaWtfcHl0aG9uJywgJy1waHQnLCAnMC41JywgJy1waCcsICc3LjUnLCAnLW50JywgJy1tYScsICcyMDAnLCAnLWltYWUnLCAnPGluZmlsZS5tYWU+JywgJy1vbWFlJywgJzxvdXRmaWxlLm1hZT4n

> <r_lp_tautomer_probability>
1

> <r_epik_Ionization_Penalty>
  0.0004

> <r_epik_Ionization_Penalty_Charging>
  0.0000

> <r_epik_Ionization_Penalty_Neutral>
  0.0004

> <r_epik_State_Penalty>
 -0.0000

> <r_epik_Charging_Adjusted_Penalty>
0

> <i_epik_Tot_Q>
0

> <i_epik_Tot_abs_Q>
2

> <s_lp_Force_Field>
OPLS3e

> <r_lp_Energy>
27.781226

> <b_lp_Chiralities_Consistent>
1

> <s_lp_Variant>
sdf/inactives_sanitized.sdf:114-1

$$$$
sdf/inactives_sanitized.sdf:115
                    3D
 Schrodinger Suite 2020-1.
 57 58  0  0  1  0            999 V2000
    2.2335   -0.3404    1.7451 C   0  0  0  0  0  0
    2.0441   -0.6740    0.4076 N   0  0  0  0  0  0
    0.2976    0.9286   -0.4408 C   0  0  0  0  0  0
    1.7256    0.3535   -0.6009 C   0  0  2  0  0  0
    2.2013    0.7948    2.2279 O   0  0  0  0  0  0
   -0.6284    0.1908   -0.0973 O   0  0  0  0  0  0
    2.4559   -1.4681    2.4458 O   0  0  0  0  0  0
    1.9074   -0.2503   -2.0203 C   0  0  0  0  0  0
    0.1563    2.2393   -0.7049 N   0  0  0  0  0  0
   -1.6351    2.8271    3.2683 C   0  0  0  0  0  0
   -1.9924    3.3122    5.9901 C   0  0  0  0  0  0
   -1.4468    2.5133    1.9125 N   0  0  0  0  0  0
    2.6577   -1.4228    3.8540 C   0  0  0  0  0  0
   -2.2128    3.6109    7.6756 Cl  0  0  0  0  0  0
   -1.5915    1.7718    4.1822 C   0  0  0  0  0  0
   -1.8602    4.1325    3.7276 C   0  0  0  0  0  0
   -2.0376    4.3729    5.0878 C   0  0  0  0  0  0
   -1.7701    2.0121    5.5417 C   0  0  0  0  0  0
    2.9179   -2.8226    4.3838 C   0  0  0  0  0  0
    3.3426   -0.7207   -2.3630 C   0  0  0  0  0  0
   -1.0832    2.9978   -0.5280 C   0  0  0  0  0  0
   -1.2679    3.5501    0.9006 C   0  0  0  0  0  0
    1.9571   -3.8241    4.2170 C   0  0  0  0  0  0
    4.1155   -3.1026    5.0466 C   0  0  0  0  0  0
    4.3705    0.4301   -2.3068 C   0  0  0  0  0  0
    3.3726   -1.4655   -3.7154 C   0  0  0  0  0  0
    2.1965   -5.1050    4.7081 C   0  0  0  0  0  0
    4.3543   -4.3838    5.5373 C   0  0  0  0  0  0
    3.3939   -5.3789    5.3658 C   0  0  0  0  0  0
    1.9842   -1.6464    0.1436 H   0  0  0  0  0  0
    2.4371    1.1751   -0.4887 H   0  0  0  0  0  0
    1.2207   -1.0917   -2.1371 H   0  0  0  0  0  0
    1.6028    0.4796   -2.7733 H   0  0  0  0  0  0
    0.9641    2.7634   -1.0093 H   0  0  0  0  0  0
   -1.0231    1.6168    1.7160 H   0  0  0  0  0  0
    3.5013   -0.7714    4.0903 H   0  0  0  0  0  0
    1.7784   -1.0103    4.3520 H   0  0  0  0  0  0
   -1.4174    0.7601    3.8438 H   0  0  0  0  0  0
   -1.8992    4.9690    3.0463 H   0  0  0  0  0  0
   -2.2090    5.3801    5.4387 H   0  0  0  0  0  0
   -1.7356    1.1906    6.2422 H   0  0  0  0  0  0
    3.6389   -1.4519   -1.6101 H   0  0  0  0  0  0
   -1.0710    3.8293   -1.2329 H   0  0  0  0  0  0
   -1.9445    2.3863   -0.8065 H   0  0  0  0  0  0
   -2.1393    4.2054    0.9288 H   0  0  0  0  0  0
   -0.4206    4.1820    1.1718 H   0  0  0  0  0  0
    1.0286   -3.6109    3.7071 H   0  0  0  0  0  0
    4.8611   -2.3323    5.1815 H   0  0  0  0  0  0
    3.8900    1.4086   -2.3296 H   0  0  0  0  0  0
    5.0792    0.4043   -3.1345 H   0  0  0  0  0  0
    4.9557    0.3760   -1.3883 H   0  0  0  0  0  0
    3.9583   -0.9441   -4.4724 H   0  0  0  0  0  0
    2.3735   -1.5995   -4.1312 H   0  0  0  0  0  0
    3.8056   -2.4594   -3.5991 H   0  0  0  0  0  0
    1.4577   -5.8825    4.5802 H   0  0  0  0  0  0
    5.2791   -4.6045    6.0495 H   0  0  0  0  0  0
    3.5795   -6.3723    5.7470 H   0  0  0  0  0  0
  1  2  1  0  0  0
  1  5  2  0  0  0
  1  7  1  0  0  0
  2  4  1  0  0  0
  2 30  1  0  0  0
  3  4  1  0  0  0
  3  6  2  0  0  0
  3  9  1  0  0  0
  4  8  1  0  0  0
  4 31  1  0  0  0
  7 13  1  0  0  0
  8 20  1  0  0  0
  8 32  1  0  0  0
  8 33  1  0  0  0
  9 21  1  0  0  0
  9 34  1  0  0  0
 10 12  1  0  0  0
 10 15  1  0  0  0
 10 16  2  0  0  0
 11 17  2  0  0  0
 11 14  1  0  0  0
 11 18  1  0  0  0
 12 22  1  0  0  0
 12 35  1  0  0  0
 13 19  1  0  0  0
 13 36  1  0  0  0
 13 37  1  0  0  0
 15 18  2  0  0  0
 15 38  1  0  0  0
 16 17  1  0  0  0
 16 39  1  0  0  0
 17 40  1  0  0  0
 18 41  1  0  0  0
 19 23  2  0  0  0
 19 24  1  0  0  0
 20 25  1  0  0  0
 20 26  1  0  0  0
 20 42  1  0  0  0
 21 22  1  0  0  0
 21 43  1  0  0  0
 21 44  1  0  0  0
 22 45  1  0  0  0
 22 46  1  0  0  0
 23 27  1  0  0  0
 23 47  1  0  0  0
 24 28  2  0  0  0
 24 48  1  0  0  0
 25 49  1  0  0  0
 25 50  1  0  0  0
 25 51  1  0  0  0
 26 52  1  0  0  0
 26 53  1  0  0  0
 26 54  1  0  0  0
 27 29  2  0  0  0
 27 55  1  0  0  0
 28 29  1  0  0  0
 28 56  1  0  0  0
 29 57  1  0  0  0
M  END
> <chembl_id>
CHEMBL78112

> <chembl_pref_name>
None

> <i_m_ct_stereo_status>
1

> <s_m_source_file>
sdf/inactives_sanitized.sdf

> <i_m_source_file_index>
115

> <i_lp_mmshare_version>
49012

> <i_f3d_flags>
0

> <s_epik_input>
W2NIXTFbY0hdW2NIXVtjSF1bY0hdYzFbQ0gyXU9DKD1PKVtOSF1bQ0BASF0oW0NIMl1bQ0hdKFtDSDNdKVtDSDNdKUMoPU8pW05IXVtDSDJdW0NIMl1bTkhdYzJbY0hdW2NIXWMoQ2wpW2NIXVtjSF0y

> <s_epik_cmdline>
J2VwaWtfcHl0aG9uJywgJy1waHQnLCAnMC41JywgJy1waCcsICc3LjUnLCAnLW50JywgJy1tYScsICcyMDAnLCAnLWltYWUnLCAnPGluZmlsZS5tYWU+JywgJy1vbWFlJywgJzxvdXRmaWxlLm1hZT4n

> <r_lp_tautomer_probability>
1

> <r_epik_Ionization_Penalty>
  0.0000

> <r_epik_Ionization_Penalty_Charging>
  0.0000

> <r_epik_Ionization_Penalty_Neutral>
  0.0000

> <r_epik_State_Penalty>
 -0.0000

> <r_epik_Charging_Adjusted_Penalty>
0

> <i_epik_Tot_Q>
0

> <i_epik_Tot_abs_Q>
0

> <s_epik_Chemistry_Notes>
This compound has an ester and may undergo hydrolysis at high or low pH.

> <s_lp_Force_Field>
OPLS3e

> <r_lp_Energy>
23.898555

> <b_lp_Chiralities_Consistent>
1

> <s_lp_Variant>
sdf/inactives_sanitized.sdf:115-1

$$$$
sdf/inactives_sanitized.sdf:116
                    3D
 Schrodinger Suite 2020-1.
 48 51  0  0  1  0            999 V2000
    0.0589    0.0524    0.4156 N   0  0  0  0  0  0
   -0.7932    1.1308    0.2477 C   0  0  0  0  0  0
    1.5003    0.1172    0.5937 C   0  0  2  0  0  0
   -2.0750    0.5704    0.0195 C   0  0  0  0  0  0
    2.1233    0.0936   -0.6572 O   0  0  0  0  0  0
    2.1488   -0.9929    1.4411 C   0  0  1  0  0  0
   -2.0162   -0.7965    0.0189 N   0  0  0  0  0  0
   -3.1381    1.4746   -0.1699 C   0  0  0  0  0  0
   -0.7493   -1.0556    0.2242 C   0  0  0  0  0  0
    3.3324   -1.4311    0.5594 C   0  0  1  0  0  0
   -0.5194    2.4420    0.2870 N   0  0  0  0  0  0
   -2.8960    2.8165   -0.1350 N   0  0  0  0  0  0
    2.7977   -1.1104   -0.8312 C   0  0  1  0  0  0
   -1.6172    3.2215    0.0881 C   0  0  0  0  0  0
   -4.4375    0.9902   -0.4040 N   0  0  0  0  0  0
    2.4847   -0.5070    2.7294 O   0  0  0  0  0  0
    4.5366   -0.7082    0.7642 O   0  0  0  0  0  0
    2.0034   -2.1512   -1.2579 O   0  0  0  0  0  0
   -5.6076    1.8686   -0.4214 C   0  0  0  0  0  0
   -1.3789    4.7194    0.1144 C   0  0  0  0  0  0
   -6.1112    2.0779    1.0258 C   0  0  0  0  0  0
   -6.7015    1.2327   -1.3063 C   0  0  0  0  0  0
   -7.3985    2.9261    1.0512 C   0  0  0  0  0  0
   -7.9901    2.0793   -1.2932 C   0  0  0  0  0  0
   -8.4964    2.3359    0.1418 C   0  0  0  0  0  0
    1.7078    1.1076    1.0054 H   0  0  0  0  0  0
    1.4572   -1.8290    1.5430 H   0  0  0  0  0  0
   -0.3204   -2.0462    0.2476 H   0  0  0  0  0  0
    3.5318   -2.4998    0.6651 H   0  0  0  0  0  0
    3.5940   -0.9586   -1.5624 H   0  0  0  0  0  0
   -4.5940    0.0003   -0.2792 H   0  0  0  0  0  0
    1.6785   -0.4181    3.2433 H   0  0  0  0  0  0
    4.8758   -0.9253    1.6359 H   0  0  0  0  0  0
    1.7616   -1.9820   -2.1716 H   0  0  0  0  0  0
   -5.3229    2.8381   -0.8334 H   0  0  0  0  0  0
   -2.3116    5.2854    0.0881 H   0  0  0  0  0  0
   -0.7725    5.0186   -0.7410 H   0  0  0  0  0  0
   -0.8438    5.0036    1.0212 H   0  0  0  0  0  0
   -6.3018    1.1154    1.5045 H   0  0  0  0  0  0
   -5.3440    2.5702    1.6258 H   0  0  0  0  0  0
   -6.3446    1.1332   -2.3325 H   0  0  0  0  0  0
   -6.9291    0.2218   -0.9619 H   0  0  0  0  0  0
   -7.7677    3.0097    2.0740 H   0  0  0  0  0  0
   -7.1680    3.9422    0.7273 H   0  0  0  0  0  0
   -7.8008    3.0343   -1.7858 H   0  0  0  0  0  0
   -8.7664    1.5848   -1.8783 H   0  0  0  0  0  0
   -9.3569    3.0055    0.1172 H   0  0  0  0  0  0
   -8.8537    1.3984    0.5708 H   0  0  0  0  0  0
  1  2  1  0  0  0
  1  3  1  0  0  0
  1  9  1  0  0  0
  2  4  2  0  0  0
  2 11  1  0  0  0
  3  5  1  0  0  0
  3  6  1  0  0  0
  3 26  1  0  0  0
  4  8  1  0  0  0
  4  7  1  0  0  0
  5 13  1  0  0  0
  6 10  1  0  0  0
  6 16  1  0  0  0
  6 27  1  0  0  0
  7  9  2  0  0  0
  8 15  1  0  0  0
  8 12  2  0  0  0
  9 28  1  0  0  0
 10 17  1  0  0  0
 10 13  1  0  0  0
 10 29  1  0  0  0
 11 14  2  0  0  0
 12 14  1  0  0  0
 13 18  1  0  0  0
 13 30  1  0  0  0
 14 20  1  0  0  0
 15 19  1  0  0  0
 15 31  1  0  0  0
 16 32  1  0  0  0
 17 33  1  0  0  0
 18 34  1  0  0  0
 19 21  1  0  0  0
 19 22  1  0  0  0
 19 35  1  0  0  0
 20 36  1  0  0  0
 20 37  1  0  0  0
 20 38  1  0  0  0
 21 23  1  0  0  0
 21 39  1  0  0  0
 21 40  1  0  0  0
 22 24  1  0  0  0
 22 41  1  0  0  0
 22 42  1  0  0  0
 23 25  1  0  0  0
 23 43  1  0  0  0
 23 44  1  0  0  0
 24 25  1  0  0  0
 24 45  1  0  0  0
 24 46  1  0  0  0
 25 47  1  0  0  0
 25 48  1  0  0  0
M  END
> <chembl_id>
CHEMBL191170

> <chembl_pref_name>
None

> <i_m_ct_stereo_status>
1

> <s_m_source_file>
sdf/inactives_sanitized.sdf

> <i_m_source_file_index>
116

> <i_lp_mmshare_version>
49012

> <i_f3d_flags>
0

> <s_epik_input>
W09IXVtDQEBIXTFbQ0BIXShbT0hdKVtDQEBIXShbT0hdKU9bQ0BIXTFuMltjSF1uYyhjMjMpYyhuYyhuMylbQ0gzXSlbTkhdW0NIXTRbQ0gyXVtDSDJdW0NIMl1bQ0gyXVtDSDJdNA==

> <s_epik_cmdline>
J2VwaWtfcHl0aG9uJywgJy1waHQnLCAnMC41JywgJy1waCcsICc3LjUnLCAnLW50JywgJy1tYScsICcyMDAnLCAnLWltYWUnLCAnPGluZmlsZS5tYWU+JywgJy1vbWFlJywgJzxvdXRmaWxlLm1hZT4n

> <r_lp_tautomer_probability>
1

> <r_epik_Ionization_Penalty>
  0.0006

> <r_epik_Ionization_Penalty_Charging>
  0.0000

> <r_epik_Ionization_Penalty_Neutral>
  0.0006

> <r_epik_State_Penalty>
 -0.0000

> <r_epik_Charging_Adjusted_Penalty>
0

> <i_epik_Tot_Q>
0

> <i_epik_Tot_abs_Q>
0

> <s_epik_Chemistry_Notes>
This compound contains an acetal/aminal-like group ( X-CH(R)-Y where X, Y are N, S, or O) that may be acid/base labile, releasing an aldehyde.

> <s_lp_Force_Field>
OPLS3e

> <r_lp_Energy>
34.09657

> <b_lp_Chiralities_Consistent>
1

> <s_lp_Variant>
sdf/inactives_sanitized.sdf:116-1

$$$$
sdf/inactives_sanitized.sdf:117
                    3D
 Schrodinger Suite 2020-1.
 34 36  0  0  1  0            999 V2000
   -2.1249    1.4105    2.4847 C   0  0  0  0  0  0
   -0.5695    1.3437    2.3557 C   0  0  0  0  0  0
   -0.0868    2.1271    1.1984 N   0  0  1  0  0  0
   -0.7111    1.6101   -0.0538 C   0  0  2  0  0  0
   -2.2692    1.6409    0.0165 C   0  0  0  0  0  0
   -2.7959    2.2333    1.3392 C   0  0  0  0  0  0
   -0.5343    3.5224    1.3933 C   0  0  0  0  0  0
   -2.0907    3.6167    1.5102 C   0  0  0  0  0  0
   -3.0084    1.2249   -0.8748 O   0  0  0  0  0  0
   -0.2172    0.2242   -0.5374 C   0  0  0  0  0  0
    1.5687    0.1149   -0.8446 S   0  0  0  0  0  0
    1.8381   -1.5657   -1.3025 C   0  0  0  0  0  0
    2.0566   -1.8878   -2.6416 C   0  0  0  0  0  0
    2.2660   -3.2161   -3.0037 C   0  0  0  0  0  0
    2.2572   -4.2097   -2.0248 C   0  0  0  0  0  0
    2.0404   -3.8854   -0.6856 C   0  0  0  0  0  0
    1.8297   -2.5579   -0.3220 C   0  0  0  0  0  0
    2.5165   -5.8559   -2.4749 Cl  0  0  0  0  0  0
   -2.5337    0.3985    2.4853 H   0  0  0  0  0  0
   -2.3945    1.8439    3.4494 H   0  0  0  0  0  0
   -0.1032    1.7210    3.2673 H   0  0  0  0  0  0
   -0.2361    0.3085    2.2755 H   0  0  0  0  0  0
   -0.4484    2.3153   -0.8442 H   0  0  0  0  0  0
   -3.8844    2.2723    1.3899 H   0  0  0  0  0  0
   -0.0645    3.9338    2.2881 H   0  0  0  0  0  0
   -0.1776    4.1425    0.5693 H   0  0  0  0  0  0
   -2.3606    4.0464    2.4765 H   0  0  0  0  0  0
   -2.4719    4.3087    0.7570 H   0  0  0  0  0  0
   -0.4835   -0.5515    0.1815 H   0  0  0  0  0  0
   -0.7101   -0.0509   -1.4714 H   0  0  0  0  0  0
    2.0625   -1.1166   -3.3982 H   0  0  0  0  0  0
    2.4339   -3.4714   -4.0398 H   0  0  0  0  0  0
    2.0354   -4.6578    0.0697 H   0  0  0  0  0  0
    1.6607   -2.3041    0.7145 H   0  0  0  0  0  0
  1  2  1  0  0  0
  1  6  1  0  0  0
  1 19  1  0  0  0
  1 20  1  0  0  0
  2  3  1  0  0  0
  2 21  1  0  0  0
  2 22  1  0  0  0
  3  4  1  0  0  0
  3  7  1  0  0  0
  4  5  1  0  0  0
  4 10  1  0  0  0
  4 23  1  0  0  0
  5  6  1  0  0  0
  5  9  2  0  0  0
  6  8  1  0  0  0
  6 24  1  0  0  0
  7  8  1  0  0  0
  7 25  1  0  0  0
  7 26  1  0  0  0
  8 27  1  0  0  0
  8 28  1  0  0  0
 10 11  1  0  0  0
 10 29  1  0  0  0
 10 30  1  0  0  0
 11 12  1  0  0  0
 12 13  2  0  0  0
 12 17  1  0  0  0
 13 14  1  0  0  0
 13 31  1  0  0  0
 14 15  2  0  0  0
 14 32  1  0  0  0
 15 16  1  0  0  0
 15 18  1  0  0  0
 16 17  2  0  0  0
 16 33  1  0  0  0
 17 34  1  0  0  0
M  END
> <chembl_id>
CHEMBL2316612

> <chembl_pref_name>
None

> <s_m_source_file>
sdf/inactives_sanitized.sdf

> <i_m_source_file_index>
117

> <i_lp_mmshare_version>
49012

> <i_m_ct_stereo_status>
1

> <i_f3d_flags>
0

> <s_epik_input>
TjEyW0NIMl1bQ0gyXVtDSF0oW0NIMl1bQ0gyXTIpQyg9TylbQ0BASF0xW0NIMl1TYzNbY0hdW2NIXWMoQ2wpW2NIXVtjSF0z

> <s_epik_cmdline>
J2VwaWtfcHl0aG9uJywgJy1waHQnLCAnMC41JywgJy1waCcsICc3LjUnLCAnLW50JywgJy1tYScsICcyMDAnLCAnLWltYWUnLCAnPGluZmlsZS5tYWU+JywgJy1vbWFlJywgJzxvdXRmaWxlLm1hZT4n

> <r_lp_tautomer_probability>
0.99999998

> <r_epik_Ionization_Penalty>
  0.0690

> <r_epik_Ionization_Penalty_Charging>
  0.0000

> <r_epik_Ionization_Penalty_Neutral>
  0.0690

> <r_epik_State_Penalty>
  0.0604

> <r_epik_Charging_Adjusted_Penalty>
0.0603975662246821

> <i_epik_Tot_Q>
0

> <i_epik_Tot_abs_Q>
0

> <s_lp_Force_Field>
OPLS3e

> <r_lp_Energy>
24.28334

> <b_lp_Chiralities_Consistent>
1

> <s_lp_Variant>
sdf/inactives_sanitized.sdf:117-1

$$$$
sdf/inactives_sanitized.sdf:118
                    3D
 Schrodinger Suite 2020-1.
 31 32  0  0  1  0            999 V2000
   -0.6331    1.1290    0.0303 C   0  0  0  0  0  0
   -0.0048   -0.1177    0.1040 C   0  0  0  0  0  0
   -0.7942   -1.2789    0.0674 C   0  0  0  0  0  0
   -2.1860   -1.1888   -0.0421 C   0  0  0  0  0  0
   -2.7973    0.0654   -0.1125 C   0  0  0  0  0  0
   -2.0204    1.2218   -0.0768 C   0  0  0  0  0  0
   -2.9955   -2.3978   -0.0852 C   0  0  0  0  0  0
   -3.6388   -3.3591   -0.1198 N   0  0  0  0  0  0
    1.3983   -0.1303    0.2125 N   0  0  0  0  0  0
    2.1898   -1.3582    0.1373 C   0  0  0  0  0  0
    3.5668   -1.0964    0.7866 C   0  0  0  0  0  0
    4.4924   -2.3227    0.6577 C   0  0  0  0  0  0
    4.6344   -2.7855   -0.8070 C   0  0  0  0  0  0
    3.2655   -3.0138   -1.4804 C   0  0  0  0  0  0
    2.3443   -1.7852   -1.3426 C   0  0  0  0  0  0
   -0.0481    2.0374    0.0565 H   0  0  0  0  0  0
   -0.3377   -2.2565    0.1171 H   0  0  0  0  0  0
   -3.8718    0.1543   -0.1963 H   0  0  0  0  0  0
   -2.4933    2.1912   -0.1329 H   0  0  0  0  0  0
    1.8668    0.7152   -0.0796 H   0  0  0  0  0  0
    1.6819   -2.1490    0.6898 H   0  0  0  0  0  0
    4.0476   -0.2324    0.3233 H   0  0  0  0  0  0
    3.4429   -0.8473    1.8417 H   0  0  0  0  0  0
    5.4750   -2.0913    1.0705 H   0  0  0  0  0  0
    4.0956   -3.1415    1.2600 H   0  0  0  0  0  0
    5.1921   -2.0350   -1.3695 H   0  0  0  0  0  0
    5.2269   -3.7000   -0.8515 H   0  0  0  0  0  0
    3.4062   -3.2560   -2.5345 H   0  0  0  0  0  0
    2.7808   -3.8822   -1.0316 H   0  0  0  0  0  0
    1.3708   -2.0179   -1.7764 H   0  0  0  0  0  0
    2.7507   -0.9613   -1.9327 H   0  0  0  0  0  0
  1  6  2  0  0  0
  1  2  1  0  0  0
  1 16  1  0  0  0
  2  9  1  0  0  0
  2  3  2  0  0  0
  3  4  1  0  0  0
  3 17  1  0  0  0
  4  5  2  0  0  0
  4  7  1  0  0  0
  5  6  1  0  0  0
  5 18  1  0  0  0
  6 19  1  0  0  0
  7  8  3  0  0  0
  9 10  1  0  0  0
  9 20  1  0  0  0
 10 11  1  0  0  0
 10 15  1  0  0  0
 10 21  1  0  0  0
 11 12  1  0  0  0
 11 22  1  0  0  0
 11 23  1  0  0  0
 12 13  1  0  0  0
 12 24  1  0  0  0
 12 25  1  0  0  0
 13 14  1  0  0  0
 13 26  1  0  0  0
 13 27  1  0  0  0
 14 15  1  0  0  0
 14 28  1  0  0  0
 14 29  1  0  0  0
 15 30  1  0  0  0
 15 31  1  0  0  0
M  END
> <chembl_id>
CHEMBL218685

> <chembl_pref_name>
None

> <s_m_source_file>
sdf/inactives_sanitized.sdf

> <i_m_source_file_index>
118

> <i_lp_mmshare_version>
49012

> <i_m_ct_stereo_status>
1

> <i_f3d_flags>
0

> <s_epik_input>
TiNDYyhbY0hdMSlbY0hdW2NIXVtjSF1jMVtOSF1bQ0hdMltDSDJdW0NIMl1bQ0gyXVtDSDJdW0NIMl0y

> <s_epik_cmdline>
J2VwaWtfcHl0aG9uJywgJy1waHQnLCAnMC41JywgJy1waCcsICc3LjUnLCAnLW50JywgJy1tYScsICcyMDAnLCAnLWltYWUnLCAnPGluZmlsZS5tYWU+JywgJy1vbWFlJywgJzxvdXRmaWxlLm1hZT4n

> <r_lp_tautomer_probability>
1

> <r_epik_Ionization_Penalty>
  0.0001

> <r_epik_Ionization_Penalty_Charging>
  0.0000

> <r_epik_Ionization_Penalty_Neutral>
  0.0001

> <r_epik_State_Penalty>
 -0.0000

> <r_epik_Charging_Adjusted_Penalty>
0

> <i_epik_Tot_Q>
0

> <i_epik_Tot_abs_Q>
0

> <s_lp_Force_Field>
OPLS3e

> <r_lp_Energy>
24.413328

> <b_lp_Chiralities_Consistent>
1

> <s_lp_Variant>
sdf/inactives_sanitized.sdf:118-1

$$$$
sdf/inactives_sanitized.sdf:119
                    3D
 Schrodinger Suite 2020-1.
 60 62  0  0  1  0            999 V2000
   -0.8143   -1.0903   -0.1217 C   0  0  0  0  0  0
    0.0178   -0.0257    0.1133 N   0  0  0  0  0  0
   -0.6949    1.0673    0.3920 N   0  0  0  0  0  0
   -2.0240    0.6938    0.3217 N   0  0  0  0  0  0
   -2.1101   -0.5902   -0.0117 C   0  0  0  0  0  0
   -3.4721   -1.3110   -0.1495 C   0  0  1  0  0  0
    1.4793    0.0245    0.1402 C   0  0  1  0  0  0
    2.0061    0.0165    1.5951 C   0  0  0  0  0  0
    2.0744   -1.0335   -0.6976 C   0  0  0  0  0  0
    2.5410   -1.8640   -1.3545 N   0  0  0  0  0  0
   -3.9536   -1.5591    1.3053 C   0  0  0  0  0  0
   -4.5097   -0.4680   -0.7871 N   0  0  0  0  0  0
   -4.4363    0.3202   -1.8826 C   0  0  0  0  0  0
   -3.4029    0.4727   -2.5372 O   0  0  0  0  0  0
   -5.7182    1.0127   -2.2952 C   0  0  0  0  0  0
   -5.8354    1.5404   -3.5898 C   0  0  0  0  0  0
   -7.0018    2.1876   -3.9883 C   0  0  0  0  0  0
   -8.0610    2.3146   -3.0945 C   0  0  0  0  0  0
   -7.9632    1.8003   -1.8051 C   0  0  0  0  0  0
   -6.7971    1.1529   -1.4055 C   0  0  0  0  0  0
    1.7586   -1.2972    2.3650 C   0  0  0  0  0  0
    2.3018   -1.2594    3.8038 C   0  0  0  0  0  0
    2.0477   -2.5629    4.5727 C   0  0  0  0  0  0
   -2.7819   -2.6200   -2.3449 C   0  0  0  0  0  0
   -2.4788   -4.0136   -2.9280 C   0  0  0  0  0  0
   -3.7355   -4.9062   -2.9157 C   0  0  0  0  0  0
   -4.4027   -4.9511   -1.5264 C   0  0  0  0  0  0
   -4.6411   -3.5359   -0.9578 C   0  0  0  0  0  0
   -3.3248   -2.7050   -0.8872 C   0  0  0  0  0  0
   -0.4237   -2.0727   -0.3427 H   0  0  0  0  0  0
    1.7720    0.9646   -0.3301 H   0  0  0  0  0  0
    3.0786    0.2148    1.5740 H   0  0  0  0  0  0
    1.5674    0.8501    2.1463 H   0  0  0  0  0  0
   -3.3088   -2.2682    1.8267 H   0  0  0  0  0  0
   -4.9728   -1.9415    1.3564 H   0  0  0  0  0  0
   -3.9515   -0.6388    1.8923 H   0  0  0  0  0  0
   -5.4159   -0.5312   -0.3479 H   0  0  0  0  0  0
   -5.0253    1.4529   -4.3003 H   0  0  0  0  0  0
   -7.0832    2.5907   -4.9870 H   0  0  0  0  0  0
   -8.9650    2.8189   -3.4032 H   0  0  0  0  0  0
   -8.7880    1.9054   -1.1157 H   0  0  0  0  0  0
   -6.7459    0.7705   -0.3963 H   0  0  0  0  0  0
    0.6885   -1.5063    2.3932 H   0  0  0  0  0  0
    2.2181   -2.1277    1.8270 H   0  0  0  0  0  0
    3.3739   -1.0584    3.7867 H   0  0  0  0  0  0
    1.8443   -0.4309    4.3464 H   0  0  0  0  0  0
    2.4376   -2.4972    5.5888 H   0  0  0  0  0  0
    2.5324   -3.4101    4.0866 H   0  0  0  0  0  0
    0.9816   -2.7810    4.6415 H   0  0  0  0  0  0
   -1.8680   -2.0293   -2.3826 H   0  0  0  0  0  0
   -3.4776   -2.0835   -2.9893 H   0  0  0  0  0  0
   -2.1020   -3.9179   -3.9470 H   0  0  0  0  0  0
   -1.6836   -4.4883   -2.3510 H   0  0  0  0  0  0
   -4.4524   -4.5252   -3.6448 H   0  0  0  0  0  0
   -3.4802   -5.9154   -3.2407 H   0  0  0  0  0  0
   -5.3471   -5.4930   -1.5868 H   0  0  0  0  0  0
   -3.7710   -5.5163   -0.8394 H   0  0  0  0  0  0
   -5.4020   -3.0019   -1.5294 H   0  0  0  0  0  0
   -5.0756   -3.6551    0.0330 H   0  0  0  0  0  0
   -2.6073   -3.2988   -0.3168 H   0  0  0  0  0  0
  1  5  2  0  0  0
  1  2  1  0  0  0
  1 30  1  0  0  0
  2  7  1  0  0  0
  2  3  1  0  0  0
  3  4  2  0  0  0
  4  5  1  0  0  0
  5  6  1  0  0  0
  6 11  1  0  0  0
  6 29  1  0  0  0
  6 12  1  0  0  0
  7  8  1  0  0  0
  7  9  1  0  0  0
  7 31  1  0  0  0
  8 21  1  0  0  0
  8 32  1  0  0  0
  8 33  1  0  0  0
  9 10  3  0  0  0
 11 34  1  0  0  0
 11 35  1  0  0  0
 11 36  1  0  0  0
 12 13  1  0  0  0
 12 37  1  0  0  0
 13 14  2  0  0  0
 13 15  1  0  0  0
 15 16  2  0  0  0
 15 20  1  0  0  0
 16 17  1  0  0  0
 16 38  1  0  0  0
 17 18  2  0  0  0
 17 39  1  0  0  0
 18 19  1  0  0  0
 18 40  1  0  0  0
 19 20  2  0  0  0
 19 41  1  0  0  0
 20 42  1  0  0  0
 21 22  1  0  0  0
 21 43  1  0  0  0
 21 44  1  0  0  0
 22 23  1  0  0  0
 22 45  1  0  0  0
 22 46  1  0  0  0
 23 47  1  0  0  0
 23 48  1  0  0  0
 23 49  1  0  0  0
 24 25  1  0  0  0
 24 29  1  0  0  0
 24 50  1  0  0  0
 24 51  1  0  0  0
 25 26  1  0  0  0
 25 52  1  0  0  0
 25 53  1  0  0  0
 26 27  1  0  0  0
 26 54  1  0  0  0
 26 55  1  0  0  0
 27 28  1  0  0  0
 27 56  1  0  0  0
 27 57  1  0  0  0
 28 29  1  0  0  0
 28 58  1  0  0  0
 28 59  1  0  0  0
 29 60  1  0  0  0
M  END
> <chembl_id>
CHEMBL385857

> <chembl_pref_name>
None

> <i_m_ct_stereo_status>
1

> <s_m_source_file>
sdf/inactives_sanitized.sdf

> <i_m_source_file_index>
119

> <i_lp_mmshare_version>
49012

> <i_f3d_flags>
0

> <s_epik_input>
W0NIM11bQ0gyXVtDSDJdW0NIMl1bQ0BASF0oQyNOKW4xW2NIXWMobm4xKVtDQF0oW0NIM10pKFtDSF0yW0NIMl1bQ0gyXVtDSDJdW0NIMl1bQ0gyXTIpW05IXUMoPU8pYzNbY0hdW2NIXVtjSF1bY0hdW2NIXTM=

> <s_epik_cmdline>
J2VwaWtfcHl0aG9uJywgJy1waHQnLCAnMC41JywgJy1waCcsICc3LjUnLCAnLW50JywgJy1tYScsICcyMDAnLCAnLWltYWUnLCAnPGluZmlsZS5tYWU+JywgJy1vbWFlJywgJzxvdXRmaWxlLm1hZT4n

> <r_lp_tautomer_probability>
1

> <r_epik_Ionization_Penalty>
  0.0000

> <r_epik_Ionization_Penalty_Charging>
  0.0000

> <r_epik_Ionization_Penalty_Neutral>
  0.0000

> <r_epik_State_Penalty>
 -0.0000

> <r_epik_Charging_Adjusted_Penalty>
0

> <i_epik_Tot_Q>
0

> <i_epik_Tot_abs_Q>
0

> <s_lp_Force_Field>
OPLS3e

> <r_lp_Energy>
27.134053

> <b_lp_Chiralities_Consistent>
1

> <s_lp_Variant>
sdf/inactives_sanitized.sdf:119-1

$$$$
sdf/inactives_sanitized.sdf:120
                    3D
 Schrodinger Suite 2020-1.
 68 71  0  0  1  0            999 V2000
   -0.5641   -0.8346   -1.5292 C   0  0  1  0  0  0
   -0.2735   -0.2160   -0.1050 C   0  0  1  0  0  0
   -0.7348   -1.0980    1.0944 C   0  0  0  0  0  0
   -0.4303   -2.5982    0.9673 C   0  0  0  0  0  0
   -1.0001   -3.1595   -0.3407 C   0  0  0  0  0  0
   -0.4622   -2.3920   -1.5622 C   0  0  0  0  0  0
   -2.0031   -0.4230   -1.9390 C   0  0  0  0  0  0
   -2.9761   -0.7883   -1.2765 O   0  0  0  0  0  0
   -2.1255    0.3558   -3.0288 N   0  0  0  0  0  0
    1.2518    0.0811    0.0581 C   0  0  0  0  0  0
    2.0488   -0.5923   -0.6023 O   0  0  0  0  0  0
    1.6848    1.0506    0.9189 N   0  0  0  0  0  0
    3.1158    1.3860    1.0271 C   0  0  2  0  0  0
    3.4834    1.1844    2.5112 C   0  0  0  0  0  0
    2.7436    2.0515    3.4418 N   0  0  0  0  0  0
    1.2806    1.8933    3.2401 C   0  0  2  0  0  0
    0.7888    1.8656    1.7609 C   0  0  0  0  0  0
    3.2491    2.1721    4.7335 C   0  0  0  0  0  0
    3.2135    3.4203    5.3653 C   0  0  0  0  0  0
    3.6686    3.5682    6.6723 C   0  0  0  0  0  0
    4.1576    2.4604    7.3650 C   0  0  0  0  0  0
    4.1829    1.2063    6.7544 C   0  0  0  0  0  0
    3.7262    1.0629    5.4472 C   0  0  0  0  0  0
    4.7324    2.6403    9.0516 S   0  0  0  0  0  0
    5.7447    1.6041    9.2840 O   0  0  0  0  0  0
    5.0582    4.0554    9.2621 O   0  0  0  0  0  0
    3.2031    2.2215   10.0724 C   0  0  0  0  0  0
    0.3861    2.8807    4.0205 C   0  0  0  0  0  0
    3.5014    2.7727    0.4746 C   0  0  0  0  0  0
   -3.3923    0.8899   -3.5223 C   0  0  0  0  0  0
   -3.6637    0.8190   -5.0099 C   0  0  0  0  0  0
   -4.4211   -0.0826   -4.0705 C   0  0  0  0  0  0
   -3.9074    2.0472   -2.7688 C   0  0  0  0  0  0
   -4.3110    2.9559   -2.1768 N   0  0  0  0  0  0
    0.0753   -0.4124   -2.3090 H   0  0  0  0  0  0
   -0.7261    0.7745   -0.0512 H   0  0  0  0  0  0
   -0.3801   -0.6950    2.0442 H   0  0  0  0  0  0
   -1.8030   -0.9279    1.2358 H   0  0  0  0  0  0
    0.6479   -2.7618    1.0030 H   0  0  0  0  0  0
   -0.8504   -3.1361    1.8179 H   0  0  0  0  0  0
   -0.7486   -4.2169   -0.4300 H   0  0  0  0  0  0
   -2.0893   -3.1108   -0.3190 H   0  0  0  0  0  0
    0.5860   -2.6414   -1.7326 H   0  0  0  0  0  0
   -0.8687   -2.7815   -2.4977 H   0  0  0  0  0  0
   -1.2870    0.7115   -3.4642 H   0  0  0  0  0  0
    3.7154    0.6715    0.4617 H   0  0  0  0  0  0
    3.2645    0.1455    2.7674 H   0  0  0  0  0  0
    4.5599    1.3119    2.6373 H   0  0  0  0  0  0
    1.0684    0.9111    3.6674 H   0  0  0  0  0  0
   -0.2564    1.5648    1.7483 H   0  0  0  0  0  0
    0.8421    2.8791    1.3622 H   0  0  0  0  0  0
    2.8346    4.2856    4.8405 H   0  0  0  0  0  0
    3.6354    4.5411    7.1406 H   0  0  0  0  0  0
    4.5476    0.3416    7.2897 H   0  0  0  0  0  0
    3.7404    0.0810    4.9975 H   0  0  0  0  0  0
    3.4514    2.3091   11.1297 H   0  0  0  0  0  0
    2.8942    1.2012    9.8463 H   0  0  0  0  0  0
    2.4050    2.9190    9.8190 H   0  0  0  0  0  0
   -0.6704    2.6491    3.8795 H   0  0  0  0  0  0
    0.5438    3.9076    3.6886 H   0  0  0  0  0  0
    0.5688    2.8408    5.0939 H   0  0  0  0  0  0
    4.5719    2.9440    0.5903 H   0  0  0  0  0  0
    3.0015    3.5824    1.0069 H   0  0  0  0  0  0
    3.2707    2.8550   -0.5878 H   0  0  0  0  0  0
   -4.1963    1.6427   -5.4857 H   0  0  0  0  0  0
   -2.9149    0.3734   -5.6656 H   0  0  0  0  0  0
   -5.4784    0.1163   -3.8920 H   0  0  0  0  0  0
   -4.1946   -1.1494   -4.0774 H   0  0  0  0  0  0
  1  2  1  0  0  0
  1  6  1  0  0  0
  1  7  1  0  0  0
  1 35  1  0  0  0
  2  3  1  0  0  0
  2 10  1  0  0  0
  2 36  1  0  0  0
  3  4  1  0  0  0
  3 37  1  0  0  0
  3 38  1  0  0  0
  4  5  1  0  0  0
  4 39  1  0  0  0
  4 40  1  0  0  0
  5  6  1  0  0  0
  5 41  1  0  0  0
  5 42  1  0  0  0
  6 43  1  0  0  0
  6 44  1  0  0  0
  7  8  2  0  0  0
  7  9  1  0  0  0
  9 30  1  0  0  0
  9 45  1  0  0  0
 10 11  2  0  0  0
 10 12  1  0  0  0
 12 13  1  0  0  0
 12 17  1  0  0  0
 13 14  1  0  0  0
 13 29  1  0  0  0
 13 46  1  0  0  0
 14 15  1  0  0  0
 14 47  1  0  0  0
 14 48  1  0  0  0
 15 16  1  0  0  0
 15 18  1  0  0  0
 16 17  1  0  0  0
 16 28  1  0  0  0
 16 49  1  0  0  0
 17 50  1  0  0  0
 17 51  1  0  0  0
 18 19  2  0  0  0
 18 23  1  0  0  0
 19 20  1  0  0  0
 19 52  1  0  0  0
 20 21  2  0  0  0
 20 53  1  0  0  0
 21 22  1  0  0  0
 21 24  1  0  0  0
 22 23  2  0  0  0
 22 54  1  0  0  0
 23 55  1  0  0  0
 24 25  2  0  0  0
 24 26  2  0  0  0
 24 27  1  0  0  0
 27 56  1  0  0  0
 27 57  1  0  0  0
 27 58  1  0  0  0
 28 59  1  0  0  0
 28 60  1  0  0  0
 28 61  1  0  0  0
 29 62  1  0  0  0
 29 63  1  0  0  0
 29 64  1  0  0  0
 30 31  1  0  0  0
 30 32  1  0  0  0
 30 33  1  0  0  0
 31 32  1  0  0  0
 31 65  1  0  0  0
 31 66  1  0  0  0
 32 67  1  0  0  0
 32 68  1  0  0  0
 33 34  3  0  0  0
M  END
> <chembl_id>
CHEMBL2171998

> <chembl_pref_name>
None

> <i_m_ct_stereo_status>
1

> <s_m_source_file>
sdf/inactives_sanitized.sdf

> <i_m_source_file_index>
120

> <i_lp_mmshare_version>
49012

> <i_f3d_flags>
0

> <s_epik_input>
W0NIMl0xW0NIMl1DMShDI04pW05IXUMoPU8pW0NASF0yW0NAQEhdKFtDSDJdW0NIMl1bQ0gyXVtDSDJdMilDKD1PKU4zW0NAQEhdKFtDSDNdKVtDSDJdTihbQ0BIXShbQ0gyXTMpW0NIM10pYzRbY0hdW2NIXWMoW2NIXVtjSF00KVMoPU8pKD1PKVtDSDNd

> <s_epik_cmdline>
J2VwaWtfcHl0aG9uJywgJy1waHQnLCAnMC41JywgJy1waCcsICc3LjUnLCAnLW50JywgJy1tYScsICcyMDAnLCAnLWltYWUnLCAnPGluZmlsZS5tYWU+JywgJy1vbWFlJywgJzxvdXRmaWxlLm1hZT4n

> <r_lp_tautomer_probability>
1

> <r_epik_Ionization_Penalty>
  0.0000

> <r_epik_Ionization_Penalty_Charging>
  0.0000

> <r_epik_Ionization_Penalty_Neutral>
  0.0000

> <r_epik_State_Penalty>
 -0.0000

> <r_epik_Charging_Adjusted_Penalty>
0

> <i_epik_Tot_Q>
0

> <i_epik_Tot_abs_Q>
0

> <s_lp_Force_Field>
OPLS3e

> <r_lp_Energy>
58.772431

> <b_lp_Chiralities_Consistent>
1

> <s_lp_Variant>
sdf/inactives_sanitized.sdf:120-1

$$$$
sdf/inactives_sanitized.sdf:121
                    3D
 Schrodinger Suite 2020-1.
 63 66  0  0  1  0            999 V2000
   -2.3683    0.5874   -0.0281 C   0  0  1  0  0  0
   -3.0809    1.3121    1.1753 C   0  0  1  0  0  0
   -4.6189    1.0989    1.1700 C   0  0  0  0  0  0
   -5.2370    1.4672   -0.1905 C   0  0  0  0  0  0
   -4.5562    0.7171   -1.3478 C   0  0  0  0  0  0
   -3.0395    0.9798   -1.3747 C   0  0  0  0  0  0
   -2.5409    0.8419    2.5621 C   0  0  0  0  0  0
   -0.8746    0.9958   -0.1101 C   0  0  0  0  0  0
   -0.5542    2.1691   -0.3094 O   0  0  0  0  0  0
   -2.1855   -0.3352    2.6732 O   0  0  0  0  0  0
    0.0234    0.0132    0.0818 N   0  0  0  0  0  0
    1.4816    0.1749    0.1252 C   0  0  2  0  0  0
    2.0955   -0.8298   -0.7632 C   0  0  0  0  0  0
    2.5769   -1.6182   -1.4606 N   0  0  0  0  0  0
   -2.5473    1.6930    3.6277 N   0  0  0  0  0  0
   -2.7895    3.1469    3.5056 C   0  0  0  0  0  0
   -1.4272    3.8703    3.3171 C   0  0  0  0  0  0
   -1.8977    1.3063    4.9049 C   0  0  0  0  0  0
   -0.6945    2.2182    5.1487 C   0  0  0  0  0  0
   -0.4765    3.3589    4.3896 C   0  0  0  0  0  0
    0.6463    4.0027    4.8414 N   0  0  0  0  0  0
    0.4005    2.1282    6.0718 C   0  0  0  0  0  0
    1.2321    3.2709    5.8533 C   0  0  0  0  0  0
    2.3973    3.4984    6.5933 C   0  0  0  0  0  0
    2.7251    2.5520    7.5647 C   0  0  0  0  0  0
    1.9331    1.4303    7.7983 C   0  0  0  0  0  0
    0.7704    1.2061    7.0635 C   0  0  0  0  0  0
    2.2977    0.5448    8.7528 F   0  0  0  0  0  0
    2.0755    0.1856    1.5735 C   0  0  0  0  0  0
    1.5251    1.3876    2.3754 C   0  0  0  0  0  0
    3.6169    0.3116    1.5119 C   0  0  0  0  0  0
    1.7198   -1.1200    2.3262 C   0  0  0  0  0  0
   -2.4131   -0.4981    0.0893 H   0  0  0  0  0  0
   -2.8692    2.3770    1.0841 H   0  0  0  0  0  0
   -4.8638    0.0462    1.3291 H   0  0  0  0  0  0
   -5.1104    1.7294    1.9131 H   0  0  0  0  0  0
   -6.3051    1.2460   -0.1839 H   0  0  0  0  0  0
   -5.1517    2.5431   -0.3518 H   0  0  0  0  0  0
   -4.7445   -0.3539   -1.2553 H   0  0  0  0  0  0
   -5.0008    1.0233   -2.2958 H   0  0  0  0  0  0
   -2.9413    2.0501   -1.5704 H   0  0  0  0  0  0
   -2.6356    0.3918   -2.2010 H   0  0  0  0  0  0
   -0.3239   -0.8973    0.3465 H   0  0  0  0  0  0
    1.7563    1.1169   -0.3555 H   0  0  0  0  0  0
   -3.5604    3.3991    2.7781 H   0  0  0  0  0  0
   -3.2537    3.4693    4.4391 H   0  0  0  0  0  0
   -1.0349    3.6659    2.3200 H   0  0  0  0  0  0
   -1.5609    4.9506    3.3786 H   0  0  0  0  0  0
   -2.6025    1.3147    5.7365 H   0  0  0  0  0  0
   -1.5264    0.2810    4.8765 H   0  0  0  0  0  0
    0.9671    4.8740    4.4445 H   0  0  0  0  0  0
    3.0225    4.3630    6.4256 H   0  0  0  0  0  0
    3.6197    2.6935    8.1534 H   0  0  0  0  0  0
    0.1664    0.3320    7.2572 H   0  0  0  0  0  0
    1.9773    1.4540    3.3659 H   0  0  0  0  0  0
    0.4484    1.3118    2.5223 H   0  0  0  0  0  0
    1.7162    2.3318    1.8643 H   0  0  0  0  0  0
    3.9205    1.2053    0.9652 H   0  0  0  0  0  0
    4.0758   -0.5440    1.0154 H   0  0  0  0  0  0
    4.0564    0.3755    2.5085 H   0  0  0  0  0  0
    2.1585   -1.1397    3.3250 H   0  0  0  0  0  0
    2.0815   -2.0008    1.7946 H   0  0  0  0  0  0
    0.6421   -1.2345    2.4489 H   0  0  0  0  0  0
  1  2  1  0  0  0
  1  6  1  0  0  0
  1  8  1  0  0  0
  1 33  1  0  0  0
  2  3  1  0  0  0
  2  7  1  0  0  0
  2 34  1  0  0  0
  3  4  1  0  0  0
  3 35  1  0  0  0
  3 36  1  0  0  0
  4  5  1  0  0  0
  4 37  1  0  0  0
  4 38  1  0  0  0
  5  6  1  0  0  0
  5 39  1  0  0  0
  5 40  1  0  0  0
  6 41  1  0  0  0
  6 42  1  0  0  0
  7 10  2  0  0  0
  7 15  1  0  0  0
  8  9  2  0  0  0
  8 11  1  0  0  0
 11 12  1  0  0  0
 11 43  1  0  0  0
 12 13  1  0  0  0
 12 29  1  0  0  0
 12 44  1  0  0  0
 13 14  3  0  0  0
 15 16  1  0  0  0
 15 18  1  0  0  0
 16 17  1  0  0  0
 16 45  1  0  0  0
 16 46  1  0  0  0
 17 20  1  0  0  0
 17 47  1  0  0  0
 17 48  1  0  0  0
 18 19  1  0  0  0
 18 49  1  0  0  0
 18 50  1  0  0  0
 19 20  2  0  0  0
 19 22  1  0  0  0
 20 21  1  0  0  0
 21 23  1  0  0  0
 21 51  1  0  0  0
 22 23  2  0  0  0
 22 27  1  0  0  0
 23 24  1  0  0  0
 24 25  2  0  0  0
 24 52  1  0  0  0
 25 26  1  0  0  0
 25 53  1  0  0  0
 26 27  2  0  0  0
 26 28  1  0  0  0
 27 54  1  0  0  0
 29 30  1  0  0  0
 29 31  1  0  0  0
 29 32  1  0  0  0
 30 55  1  0  0  0
 30 56  1  0  0  0
 30 57  1  0  0  0
 31 58  1  0  0  0
 31 59  1  0  0  0
 31 60  1  0  0  0
 32 61  1  0  0  0
 32 62  1  0  0  0
 32 63  1  0  0  0
M  END
> <chembl_id>
CHEMBL2164681

> <chembl_pref_name>
None

> <i_m_ct_stereo_status>
1

> <s_m_source_file>
sdf/inactives_sanitized.sdf

> <i_m_source_file_index>
121

> <i_lp_mmshare_version>
49012

> <i_f3d_flags>
0

> <s_epik_input>
TiNDW0NASF0oQyhbQ0gzXSkoW0NIM10pW0NIM10pW05IXUMoPU8pW0NASF0xW0NAQEhdKFtDSDJdW0NIMl1bQ0gyXVtDSDJdMSlDKD1PKU4oW0NIMl0yKVtDSDJdW0NIMl1jKGMyMylbbkhdYzRjM1tjSF1jKEYpW2NIXVtjSF00

> <s_epik_cmdline>
J2VwaWtfcHl0aG9uJywgJy1waHQnLCAnMC41JywgJy1waCcsICc3LjUnLCAnLW50JywgJy1tYScsICcyMDAnLCAnLWltYWUnLCAnPGluZmlsZS5tYWU+JywgJy1vbWFlJywgJzxvdXRmaWxlLm1hZT4n

> <r_lp_tautomer_probability>
1

> <r_epik_Ionization_Penalty>
  0.0000

> <r_epik_Ionization_Penalty_Charging>
  0.0000

> <r_epik_Ionization_Penalty_Neutral>
  0.0000

> <r_epik_State_Penalty>
 -0.0000

> <r_epik_Charging_Adjusted_Penalty>
0

> <i_epik_Tot_Q>
0

> <i_epik_Tot_abs_Q>
0

> <s_lp_Force_Field>
OPLS3e

> <r_lp_Energy>
41.737822

> <b_lp_Chiralities_Consistent>
1

> <s_lp_Variant>
sdf/inactives_sanitized.sdf:121-1

$$$$
sdf/inactives_sanitized.sdf:122
                    3D
 Schrodinger Suite 2020-1.
 17 16  0  0  1  0            999 V2000
   -0.4923   -0.6957   -1.2328 C   0  0  0  0  0  0
   -0.9252   -1.2840   -2.1310 N   0  0  0  0  0  0
    0.0226    0.0332   -0.2205 N   0  0  0  0  0  0
    1.4750   -0.0321   -0.0688 C   0  0  0  0  0  0
   -0.5234    1.3808   -0.0685 C   0  0  0  0  0  0
    2.0322   -1.4604    0.0512 C   0  0  0  0  0  0
   -2.0556    1.4305    0.0529 C   0  0  0  0  0  0
    1.9408    0.4670   -0.9200 H   0  0  0  0  0  0
    1.7683    0.5322    0.8178 H   0  0  0  0  0  0
   -0.0887    1.8453    0.8179 H   0  0  0  0  0  0
   -0.2087    1.9866   -0.9197 H   0  0  0  0  0  0
    3.1106   -1.4400    0.2097 H   0  0  0  0  0  0
    1.8486   -2.0419   -0.8529 H   0  0  0  0  0  0
    1.5850   -1.9909    0.8925 H   0  0  0  0  0  0
   -2.3953    2.4541    0.2125 H   0  0  0  0  0  0
   -2.4063    0.8318    0.8942 H   0  0  0  0  0  0
   -2.5439    1.0645   -0.8509 H   0  0  0  0  0  0
  1  2  3  0  0  0
  1  3  1  0  0  0
  3  4  1  0  0  0
  3  5  1  0  0  0
  4  6  1  0  0  0
  4  8  1  0  0  0
  4  9  1  0  0  0
  5  7  1  0  0  0
  5 10  1  0  0  0
  5 11  1  0  0  0
  6 12  1  0  0  0
  6 13  1  0  0  0
  6 14  1  0  0  0
  7 15  1  0  0  0
  7 16  1  0  0  0
  7 17  1  0  0  0
M  END
> <chembl_id>
CHEMBL274120

> <chembl_pref_name>
None

> <s_m_source_file>
sdf/inactives_sanitized.sdf

> <i_m_source_file_index>
122

> <i_lp_mmshare_version>
49012

> <i_m_ct_stereo_status>
1

> <i_f3d_flags>
0

> <s_epik_input>
TiNDTihbQ0gyXVtDSDNdKVtDSDJdW0NIM10=

> <s_epik_cmdline>
J2VwaWtfcHl0aG9uJywgJy1waHQnLCAnMC41JywgJy1waCcsICc3LjUnLCAnLW50JywgJy1tYScsICcyMDAnLCAnLWltYWUnLCAnPGluZmlsZS5tYWU+JywgJy1vbWFlJywgJzxvdXRmaWxlLm1hZT4n

> <r_lp_tautomer_probability>
1

> <r_epik_Ionization_Penalty>
  0.0000

> <r_epik_Ionization_Penalty_Charging>
  0.0000

> <r_epik_Ionization_Penalty_Neutral>
  0.0000

> <r_epik_State_Penalty>
 -0.0000

> <r_epik_Charging_Adjusted_Penalty>
0

> <i_epik_Tot_Q>
0

> <i_epik_Tot_abs_Q>
0

> <s_lp_Force_Field>
OPLS3e

> <r_lp_Energy>
2.207485

> <b_lp_Chiralities_Consistent>
1

> <s_lp_Variant>
sdf/inactives_sanitized.sdf:122-1

$$$$
sdf/inactives_sanitized.sdf:123
                    3D
 Schrodinger Suite 2020-1.
 54 57  0  0  1  0            999 V2000
   -7.5012   -2.9876    1.6497 C   0  0  0  0  0  0
   -7.5590   -1.6914    0.9969 N   0  0  0  0  0  0
   -8.6927   -0.9571    0.7261 C   0  0  0  0  0  0
   -8.4624    0.1936    0.1491 N   0  0  0  0  0  0
   -7.0954    0.2464    0.0390 C   0  0  0  0  0  0
   -6.2445    1.2329   -0.4873 C   0  0  0  0  0  0
   -4.8973    1.0762   -0.4865 N   0  0  0  0  0  0
   -4.3427   -0.0578    0.0273 C   0  0  0  0  0  0
   -5.1049   -1.1007    0.5790 C   0  0  0  0  0  0
   -6.4938   -0.9239    0.5697 C   0  0  0  0  0  0
   -2.8507   -0.1279   -0.0214 C   0  0  0  0  0  0
   -2.2004   -1.3467   -0.2430 C   0  0  0  0  0  0
   -0.8112   -1.4220   -0.2954 C   0  0  0  0  0  0
   -0.0239   -0.2735   -0.1220 C   0  0  0  0  0  0
    1.3581   -0.2851   -0.1731 O   0  0  0  0  0  0
    2.0590   -1.5254   -0.1799 C   0  0  0  0  0  0
    3.5663   -1.2517   -0.0245 C   0  0  0  0  0  0
    3.9576   -0.4087    1.2154 C   0  0  0  0  0  0
    5.4659   -0.0844    1.2118 C   0  0  0  0  0  0
    5.8356    0.8645    2.3664 C   0  0  0  0  0  0
    5.4185    0.2149    3.7007 N   0  3  0  0  0  0
    3.9331   -0.1947    3.7515 C   0  0  0  0  0  0
    3.6223   -1.1078    2.5516 C   0  0  0  0  0  0
   -0.6591    0.9595    0.1026 C   0  0  0  0  0  0
   -2.0589    1.0167    0.1497 C   0  0  0  0  0  0
    0.1728    2.2314    0.3021 C   0  0  0  0  0  0
   -0.5778    3.3138    0.5153 F   0  0  0  0  0  0
    0.9807    2.0797    1.3528 F   0  0  0  0  0  0
    0.9195    2.4556   -0.7797 F   0  0  0  0  0  0
   -6.7255    2.4791   -1.0648 C   0  0  0  0  0  0
   -7.1087    3.4698   -1.5240 N   0  0  0  0  0  0
   -7.0472   -2.8747    2.6348 H   0  0  0  0  0  0
   -6.8955   -3.6674    1.0491 H   0  0  0  0  0  0
   -8.5043   -3.4031    1.7559 H   0  0  0  0  0  0
   -9.6644   -1.3507    0.9879 H   0  0  0  0  0  0
   -4.6484   -1.9882    0.9919 H   0  0  0  0  0  0
   -2.7722   -2.2512   -0.3908 H   0  0  0  0  0  0
   -0.3628   -2.3861   -0.4804 H   0  0  0  0  0  0
    1.7115   -2.1773    0.6232 H   0  0  0  0  0  0
    1.8783   -2.0467   -1.1215 H   0  0  0  0  0  0
    4.1005   -2.2030   -0.0088 H   0  0  0  0  0  0
    3.9065   -0.7374   -0.9247 H   0  0  0  0  0  0
    3.4152    0.5386    1.1776 H   0  0  0  0  0  0
    6.0589   -0.9999    1.2457 H   0  0  0  0  0  0
    5.7374    0.3841    0.2646 H   0  0  0  0  0  0
    6.9088    1.0433    2.4391 H   0  0  0  0  0  0
    5.3112    1.8198    2.3138 H   0  0  0  0  0  0
    5.9872   -0.6061    3.8528 H   0  0  0  0  0  0
    3.7898   -0.6943    4.7100 H   0  0  0  0  0  0
    3.3585    0.7329    3.7360 H   0  0  0  0  0  0
    4.1523   -2.0584    2.6319 H   0  0  0  0  0  0
    2.5668   -1.3778    2.5803 H   0  0  0  0  0  0
   -2.5454    1.9648    0.3280 H   0  0  0  0  0  0
    5.6160    0.8527    4.4593 H   0  0  0  0  0  0
  1  2  1  0  0  0
  1 32  1  0  0  0
  1 33  1  0  0  0
  1 34  1  0  0  0
  2  3  1  0  0  0
  2 10  1  0  0  0
  3  4  2  0  0  0
  3 35  1  0  0  0
  4  5  1  0  0  0
  5  6  2  0  0  0
  5 10  1  0  0  0
  6  7  1  0  0  0
  6 30  1  0  0  0
  7  8  2  0  0  0
  8  9  1  0  0  0
  8 11  1  0  0  0
  9 10  2  0  0  0
  9 36  1  0  0  0
 11 12  2  0  0  0
 11 25  1  0  0  0
 12 13  1  0  0  0
 12 37  1  0  0  0
 13 14  2  0  0  0
 13 38  1  0  0  0
 14 15  1  0  0  0
 14 24  1  0  0  0
 15 16  1  0  0  0
 16 17  1  0  0  0
 16 39  1  0  0  0
 16 40  1  0  0  0
 17 18  1  0  0  0
 17 41  1  0  0  0
 17 42  1  0  0  0
 18 19  1  0  0  0
 18 23  1  0  0  0
 18 43  1  0  0  0
 19 20  1  0  0  0
 19 44  1  0  0  0
 19 45  1  0  0  0
 20 21  1  0  0  0
 20 46  1  0  0  0
 20 47  1  0  0  0
 21 22  1  0  0  0
 21 48  1  0  0  0
 21 54  1  0  0  0
 22 23  1  0  0  0
 22 49  1  0  0  0
 22 50  1  0  0  0
 23 51  1  0  0  0
 23 52  1  0  0  0
 24 25  2  0  0  0
 24 26  1  0  0  0
 25 53  1  0  0  0
 26 27  1  0  0  0
 26 28  1  0  0  0
 26 29  1  0  0  0
 30 31  3  0  0  0
M  CHG  1  21   1
M  END
> <chembl_id>
CHEMBL1209037

> <chembl_pref_name>
None

> <s_m_source_file>
sdf/inactives_sanitized.sdf

> <i_m_source_file_index>
123

> <i_lp_mmshare_version>
49012

> <i_m_ct_stereo_status>
1

> <i_f3d_flags>
0

> <s_epik_input>
bjFbY0hdbihbQ0gzXSljKGMxMilbY0hdYyhuYzJDI04pLWMzW2NIXVtjSF1jKGMoW2NIXTMpQyhGKShGKUYpT1tDSDJdW0NIMl1bQ0hdNFtDSDJdW0NIMl1bTkhdW0NIMl1bQ0gyXTQ=

> <s_epik_cmdline>
J2VwaWtfcHl0aG9uJywgJy1waHQnLCAnMC41JywgJy1waCcsICc3LjUnLCAnLW50JywgJy1tYScsICcyMDAnLCAnLWltYWUnLCAnPGluZmlsZS5tYWU+JywgJy1vbWFlJywgJzxvdXRmaWxlLm1hZT4n

> <r_lp_tautomer_probability>
1

> <r_epik_Ionization_Penalty>
  0.0009

> <r_epik_Ionization_Penalty_Charging>
  0.0009

> <r_epik_Ionization_Penalty_Neutral>
  0.0000

> <r_epik_State_Penalty>
 -0.0000

> <r_epik_Charging_Adjusted_Penalty>
0.000853464636754387

> <i_epik_Tot_Q>
1

> <i_epik_Tot_abs_Q>
1

> <s_lp_Force_Field>
OPLS3e

> <r_lp_Energy>
40.349568

> <b_lp_Chiralities_Consistent>
1

> <s_lp_Variant>
sdf/inactives_sanitized.sdf:123-1

$$$$
sdf/inactives_sanitized.sdf:124
                    3D
 Schrodinger Suite 2020-1.
 48 51  0  0  1  0            999 V2000
   -1.0298    1.0899   -0.1489 N   0  0  0  0  0  0
   -0.3506   -0.0891   -0.0658 C   0  0  0  0  0  0
   -0.9903   -1.3390   -0.0244 C   0  0  0  0  0  0
   -2.3851    1.0901   -0.2078 C   0  0  0  0  0  0
   -3.3592   -2.3030   -0.0689 N   0  0  0  0  0  0
   -4.5670   -1.6486   -0.1705 C   0  0  0  0  0  0
   -4.4688   -0.3459   -0.2315 N   0  0  0  0  0  0
   -3.1180   -0.1084   -0.1803 C   0  0  0  0  0  0
   -2.3887   -1.3213   -0.0841 C   0  0  0  0  0  0
   -3.0045    2.4040   -0.2984 C   0  0  0  0  0  0
   -3.4975    3.4484   -0.3699 N   0  0  0  0  0  0
    1.1390    0.0231   -0.0074 C   0  0  0  0  0  0
    1.9549   -0.9481   -0.5996 C   0  0  0  0  0  0
    3.3534   -0.8665   -0.5533 C   0  0  0  0  0  0
    3.9689    0.2163    0.1012 C   0  0  0  0  0  0
    3.1534    1.1931    0.6921 C   0  0  0  0  0  0
    1.7656    1.0954    0.6376 C   0  0  0  0  0  0
    4.2049   -1.9563   -1.2163 C   0  0  0  0  0  0
    4.9841   -1.4126   -2.1522 F   0  0  0  0  0  0
    4.9800   -2.5390   -0.3007 F   0  0  0  0  0  0
    3.4705   -2.9075   -1.7969 F   0  0  0  0  0  0
   -3.1548   -3.7395   -0.0021 C   0  0  0  0  0  0
    5.3556    0.2325    0.1109 O   0  0  0  0  0  0
    6.1546    1.2535    0.7192 C   0  0  0  0  0  0
    6.0550    1.3233    2.2613 C   0  0  0  0  0  0
    7.0993    2.2975    2.8373 C   0  0  0  0  0  0
    6.9439    3.6728    2.1610 N   0  3  0  0  0  0
    7.0921    3.6155    0.6289 C   0  0  0  0  0  0
    6.0477    2.6437    0.0500 C   0  0  0  0  0  0
   -0.4384   -2.2640    0.0563 H   0  0  0  0  0  0
   -5.4862   -2.2160   -0.1916 H   0  0  0  0  0  0
    1.4894   -1.7775   -1.1117 H   0  0  0  0  0  0
    3.5582    2.0460    1.2060 H   0  0  0  0  0  0
    1.1747    1.8657    1.1118 H   0  0  0  0  0  0
   -2.5370   -3.9758    0.8650 H   0  0  0  0  0  0
   -2.6470   -4.0739   -0.9074 H   0  0  0  0  0  0
   -4.1121   -4.2543    0.0894 H   0  0  0  0  0  0
    7.1647    0.8991    0.5052 H   0  0  0  0  0  0
    5.0765    1.6500    2.6051 H   0  0  0  0  0  0
    6.2467    0.3370    2.6854 H   0  0  0  0  0  0
    6.9683    2.4689    3.9063 H   0  0  0  0  0  0
    8.1255    1.9791    2.6472 H   0  0  0  0  0  0
    6.0382    4.0562    2.3928 H   0  0  0  0  0  0
    6.9566    4.6370    0.2722 H   0  0  0  0  0  0
    8.1179    3.2993    0.4336 H   0  0  0  0  0  0
    6.2343    2.5500   -1.0206 H   0  0  0  0  0  0
    5.0683    3.0982    0.1797 H   0  0  0  0  0  0
    7.6356    4.3063    2.5369 H   0  0  0  0  0  0
  1  2  2  0  0  0
  1  4  1  0  0  0
  2 12  1  0  0  0
  2  3  1  0  0  0
  3  9  2  0  0  0
  3 30  1  0  0  0
  4  8  2  0  0  0
  4 10  1  0  0  0
  5  6  1  0  0  0
  5  9  1  0  0  0
  5 22  1  0  0  0
  6  7  2  0  0  0
  6 31  1  0  0  0
  7  8  1  0  0  0
  8  9  1  0  0  0
 10 11  3  0  0  0
 12 17  1  0  0  0
 12 13  2  0  0  0
 13 14  1  0  0  0
 13 32  1  0  0  0
 14 15  2  0  0  0
 14 18  1  0  0  0
 15 16  1  0  0  0
 15 23  1  0  0  0
 16 17  2  0  0  0
 16 33  1  0  0  0
 17 34  1  0  0  0
 18 19  1  0  0  0
 18 20  1  0  0  0
 18 21  1  0  0  0
 22 35  1  0  0  0
 22 36  1  0  0  0
 22 37  1  0  0  0
 23 24  1  0  0  0
 24 25  1  0  0  0
 24 29  1  0  0  0
 24 38  1  0  0  0
 25 26  1  0  0  0
 25 39  1  0  0  0
 25 40  1  0  0  0
 26 27  1  0  0  0
 26 41  1  0  0  0
 26 42  1  0  0  0
 27 28  1  0  0  0
 27 43  1  0  0  0
 27 48  1  0  0  0
 28 29  1  0  0  0
 28 44  1  0  0  0
 28 45  1  0  0  0
 29 46  1  0  0  0
 29 47  1  0  0  0
M  CHG  1  27   1
M  END
> <chembl_id>
CHEMBL1209035

> <chembl_pref_name>
None

> <s_m_source_file>
sdf/inactives_sanitized.sdf

> <i_m_source_file_index>
124

> <i_lp_mmshare_version>
49012

> <i_m_ct_stereo_status>
1

> <i_f3d_flags>
0

> <s_epik_input>
bjFbY0hdbihbQ0gzXSljKGMxMilbY0hdYyhuYzJDI04pLWMzW2NIXWMoQyhGKShGKUYpYyhbY0hdW2NIXTMpT1tDSF00W0NIMl1bQ0gyXVtOSF1bQ0gyXVtDSDJdNA==

> <s_epik_cmdline>
J2VwaWtfcHl0aG9uJywgJy1waHQnLCAnMC41JywgJy1waCcsICc3LjUnLCAnLW50JywgJy1tYScsICcyMDAnLCAnLWltYWUnLCAnPGluZmlsZS5tYWU+JywgJy1vbWFlJywgJzxvdXRmaWxlLm1hZT4n

> <r_lp_tautomer_probability>
1

> <r_epik_Ionization_Penalty>
  0.0065

> <r_epik_Ionization_Penalty_Charging>
  0.0065

> <r_epik_Ionization_Penalty_Neutral>
  0.0000

> <r_epik_State_Penalty>
 -0.0000

> <r_epik_Charging_Adjusted_Penalty>
0.00651311189176741

> <i_epik_Tot_Q>
1

> <i_epik_Tot_abs_Q>
1

> <s_lp_Force_Field>
OPLS3e

> <r_lp_Energy>
42.473299

> <b_lp_Chiralities_Consistent>
1

> <s_lp_Variant>
sdf/inactives_sanitized.sdf:124-1

$$$$
sdf/inactives_sanitized.sdf:125
                    3D
 Schrodinger Suite 2020-1.
 53 55  0  0  1  0            999 V2000
   -3.2043   -2.6474    0.0185 N   0  0  0  0  0  0
   -1.9723   -3.2292   -0.0204 C   0  0  0  0  0  0
   -0.7766   -2.4929   -0.0067 C   0  0  0  0  0  0
   -3.3150   -1.2964    0.0652 C   0  0  0  0  0  0
   -0.0055   -0.0537    0.0793 N   0  0  0  0  0  0
   -0.7606    1.0983    0.1191 C   0  0  0  0  0  0
   -2.0524    0.8956    0.1251 N   0  0  0  0  0  0
   -2.1786   -0.4700    0.0805 C   0  0  0  0  0  0
   -0.9079   -1.0999    0.0454 C   0  0  0  0  0  0
   -4.6770   -0.7845    0.0992 C   0  0  0  0  0  0
   -5.7597   -0.3769    0.1262 N   0  0  0  0  0  0
   -1.9611   -4.7225   -0.0631 C   0  0  0  0  0  0
   -2.9159   -5.4803    0.6294 C   0  0  0  0  0  0
   -2.9077   -6.8818    0.6020 C   0  0  0  0  0  0
   -1.9203   -7.5549   -0.1380 C   0  0  0  0  0  0
   -0.9650   -6.8000   -0.8371 C   0  0  0  0  0  0
   -0.9875   -5.4086   -0.7968 C   0  0  0  0  0  0
   -3.9664   -7.6728    1.3788 C   0  0  0  0  0  0
   -4.6697   -8.4308    0.5365 F   0  0  0  0  0  0
   -3.3716   -8.4656    2.2712 F   0  0  0  0  0  0
   -4.8218   -6.8866    2.0355 F   0  0  0  0  0  0
   -1.9467   -8.9390   -0.1394 O   0  0  0  0  0  0
   -0.9225   -9.6673   -0.8098 C   0  0  0  0  0  0
   -1.1576  -11.1633   -0.5819 C   0  0  0  0  0  0
    1.4492   -0.1341    0.0462 C   0  0  0  0  0  0
    1.9506   -0.4876   -1.3665 C   0  0  0  0  0  0
    3.4855   -0.5849   -1.4291 C   0  0  0  0  0  0
    3.9632   -1.1058   -2.8045 N   0  3  0  0  0  0
    3.6632   -0.1393   -3.9692 C   0  0  0  0  0  0
    5.4620   -1.4661   -2.7715 C   0  0  0  0  0  0
    0.1907   -2.9727   -0.0234 H   0  0  0  0  0  0
   -0.2718    2.0617    0.1425 H   0  0  0  0  0  0
   -3.6715   -4.9655    1.2051 H   0  0  0  0  0  0
   -0.1933   -7.2757   -1.4227 H   0  0  0  0  0  0
   -0.2392   -4.8637   -1.3535 H   0  0  0  0  0  0
   -0.9395   -9.4513   -1.8794 H   0  0  0  0  0  0
    0.0598   -9.3912   -0.4224 H   0  0  0  0  0  0
   -0.3891  -11.7589   -1.0748 H   0  0  0  0  0  0
   -2.1251  -11.4740   -0.9773 H   0  0  0  0  0  0
   -1.1371  -11.4062    0.4809 H   0  0  0  0  0  0
    1.8647    0.8198    0.3762 H   0  0  0  0  0  0
    1.7684   -0.8791    0.7770 H   0  0  0  0  0  0
    1.5154   -1.4334   -1.6931 H   0  0  0  0  0  0
    1.5987    0.2760   -2.0607 H   0  0  0  0  0  0
    3.9843    0.3720   -1.2644 H   0  0  0  0  0  0
    3.8517   -1.3143   -0.7045 H   0  0  0  0  0  0
    4.1487    0.8124   -3.7473 H   0  0  0  0  0  0
    2.5819   -0.0330   -4.0496 H   0  0  0  0  0  0
    4.0652   -0.5901   -4.8776 H   0  0  0  0  0  0
    6.0217   -0.5517   -2.5670 H   0  0  0  0  0  0
    5.7186   -1.8854   -3.7454 H   0  0  0  0  0  0
    5.6016   -2.2088   -1.9847 H   0  0  0  0  0  0
    3.4626   -1.9645   -2.9878 H   0  0  0  0  0  0
  1  2  2  0  0  0
  1  4  1  0  0  0
  2 12  1  0  0  0
  2  3  1  0  0  0
  3  9  2  0  0  0
  3 31  1  0  0  0
  4  8  2  0  0  0
  4 10  1  0  0  0
  5  6  1  0  0  0
  5  9  1  0  0  0
  5 25  1  0  0  0
  6  7  2  0  0  0
  6 32  1  0  0  0
  7  8  1  0  0  0
  8  9  1  0  0  0
 10 11  3  0  0  0
 12 17  1  0  0  0
 12 13  2  0  0  0
 13 14  1  0  0  0
 13 33  1  0  0  0
 14 15  2  0  0  0
 14 18  1  0  0  0
 15 16  1  0  0  0
 15 22  1  0  0  0
 16 17  2  0  0  0
 16 34  1  0  0  0
 17 35  1  0  0  0
 18 19  1  0  0  0
 18 20  1  0  0  0
 18 21  1  0  0  0
 22 23  1  0  0  0
 23 24  1  0  0  0
 23 36  1  0  0  0
 23 37  1  0  0  0
 24 38  1  0  0  0
 24 39  1  0  0  0
 24 40  1  0  0  0
 25 26  1  0  0  0
 25 41  1  0  0  0
 25 42  1  0  0  0
 26 27  1  0  0  0
 26 43  1  0  0  0
 26 44  1  0  0  0
 27 28  1  0  0  0
 27 45  1  0  0  0
 27 46  1  0  0  0
 28 29  1  0  0  0
 28 30  1  0  0  0
 28 53  1  0  0  0
 29 47  1  0  0  0
 29 48  1  0  0  0
 29 49  1  0  0  0
 30 50  1  0  0  0
 30 51  1  0  0  0
 30 52  1  0  0  0
M  CHG  1  28   1
M  END
> <chembl_id>
CHEMBL1208907

> <chembl_pref_name>
None

> <s_m_source_file>
sdf/inactives_sanitized.sdf

> <i_m_source_file_index>
125

> <i_lp_mmshare_version>
49012

> <i_m_ct_stereo_status>
1

> <i_f3d_flags>
0

> <s_epik_input>
W0NIM11bQ0gyXU9jKFtjSF1bY0hdMSljKEMoRikoRilGKVtjSF1jMS1jKG5jMkMjTilbY0hdYyhjMjMpbihbY0hdbjMpW0NIMl1bQ0gyXVtDSDJdTihbQ0gzXSlbQ0gzXQ==

> <s_epik_cmdline>
J2VwaWtfcHl0aG9uJywgJy1waHQnLCAnMC41JywgJy1waCcsICc3LjUnLCAnLW50JywgJy1tYScsICcyMDAnLCAnLWltYWUnLCAnPGluZmlsZS5tYWU+JywgJy1vbWFlJywgJzxvdXRmaWxlLm1hZT4n

> <r_lp_tautomer_probability>
1

> <r_epik_Ionization_Penalty>
  0.0113

> <r_epik_Ionization_Penalty_Charging>
  0.0113

> <r_epik_Ionization_Penalty_Neutral>
  0.0000

> <r_epik_State_Penalty>
  0.0087

> <r_epik_Charging_Adjusted_Penalty>
0.020019977768349

> <i_epik_Tot_Q>
1

> <i_epik_Tot_abs_Q>
1

> <s_lp_Force_Field>
OPLS3e

> <r_lp_Energy>
43.889801

> <b_lp_Chiralities_Consistent>
1

> <s_lp_Variant>
sdf/inactives_sanitized.sdf:125-1

$$$$
sdf/inactives_sanitized.sdf:126
                    3D
 Schrodinger Suite 2020-1.
 50 52  0  0  1  0            999 V2000
   -0.6662    1.2280    0.0479 N   0  0  0  0  0  0
   -0.0846   -0.0048    0.0544 C   0  0  0  0  0  0
   -0.8240   -1.1990    0.0214 C   0  0  0  0  0  0
   -2.0171    1.3421    0.0134 C   0  0  0  0  0  0
   -3.2658   -1.9638   -0.0602 N   0  0  0  0  0  0
   -4.4167   -1.2060   -0.0753 C   0  0  0  0  0  0
   -4.2115    0.0850   -0.0551 N   0  0  0  0  0  0
   -2.8453    0.2077   -0.0190 C   0  0  0  0  0  0
   -2.2173   -1.0643   -0.0157 C   0  0  0  0  0  0
   -2.5265    2.7052    0.0097 C   0  0  0  0  0  0
   -2.9321    3.7890    0.0067 N   0  0  0  0  0  0
    1.4104   -0.0168    0.0797 C   0  0  0  0  0  0
    2.1606    0.9754   -0.5679 C   0  0  0  0  0  0
    3.5624    0.9681   -0.5567 C   0  0  0  0  0  0
    4.2448   -0.0580    0.1189 C   0  0  0  0  0  0
    3.4987   -1.0511    0.7731 C   0  0  0  0  0  0
    2.1068   -1.0276    0.7514 C   0  0  0  0  0  0
    4.3438    2.0704   -1.2809 C   0  0  0  0  0  0
    5.1157    2.7219   -0.4103 F   0  0  0  0  0  0
    5.1219    1.5286   -2.2186 F   0  0  0  0  0  0
    3.5492    2.9639   -1.8737 F   0  0  0  0  0  0
    5.6287   -0.0300    0.1038 O   0  0  0  0  0  0
    6.3668   -1.0867    0.7099 C   0  0  0  0  0  0
    7.8599   -0.8276    0.4889 C   0  0  0  0  0  0
   -3.1883   -3.4184   -0.0548 C   0  0  0  0  0  0
   -2.8178   -3.9251    1.3538 C   0  0  0  0  0  0
   -2.8574   -5.4694    1.4242 N   0  3  0  0  0  0
   -2.7603   -5.9609    2.8822 C   0  0  0  0  0  0
   -1.7870   -6.1530    0.5481 C   0  0  0  0  0  0
   -0.3468   -2.1678    0.0114 H   0  0  0  0  0  0
   -5.3815   -1.6921   -0.1008 H   0  0  0  0  0  0
    1.6396    1.7614   -1.0955 H   0  0  0  0  0  0
    3.9820   -1.8538    1.3087 H   0  0  0  0  0  0
    1.5703   -1.8063    1.2735 H   0  0  0  0  0  0
    6.1568   -1.1337    1.7798 H   0  0  0  0  0  0
    6.0947   -2.0463    0.2668 H   0  0  0  0  0  0
    8.4638   -1.6204    0.9309 H   0  0  0  0  0  0
    8.1662    0.1165    0.9405 H   0  0  0  0  0  0
    8.0970   -0.7816   -0.5744 H   0  0  0  0  0  0
   -4.1524   -3.8192   -0.3728 H   0  0  0  0  0  0
   -2.4501   -3.7089   -0.8027 H   0  0  0  0  0  0
   -1.8158   -3.6300    1.6714 H   0  0  0  0  0  0
   -3.5474   -3.5866    2.0921 H   0  0  0  0  0  0
   -1.7952   -5.6414    3.2791 H   0  0  0  0  0  0
   -2.8496   -7.0481    2.8684 H   0  0  0  0  0  0
   -3.5894   -5.5145    3.4330 H   0  0  0  0  0  0
   -0.8091   -5.7998    0.8788 H   0  0  0  0  0  0
   -1.9826   -5.8895   -0.4905 H   0  0  0  0  0  0
   -1.8912   -7.2298    0.6880 H   0  0  0  0  0  0
   -3.7615   -5.7613    1.0788 H   0  0  0  0  0  0
  1  2  2  0  0  0
  1  4  1  0  0  0
  2 12  1  0  0  0
  2  3  1  0  0  0
  3  9  2  0  0  0
  3 30  1  0  0  0
  4  8  2  0  0  0
  4 10  1  0  0  0
  5  6  1  0  0  0
  5  9  1  0  0  0
  5 25  1  0  0  0
  6  7  2  0  0  0
  6 31  1  0  0  0
  7  8  1  0  0  0
  8  9  1  0  0  0
 10 11  3  0  0  0
 12 17  1  0  0  0
 12 13  2  0  0  0
 13 14  1  0  0  0
 13 32  1  0  0  0
 14 15  2  0  0  0
 14 18  1  0  0  0
 15 16  1  0  0  0
 15 22  1  0  0  0
 16 17  2  0  0  0
 16 33  1  0  0  0
 17 34  1  0  0  0
 18 19  1  0  0  0
 18 20  1  0  0  0
 18 21  1  0  0  0
 22 23  1  0  0  0
 23 24  1  0  0  0
 23 35  1  0  0  0
 23 36  1  0  0  0
 24 37  1  0  0  0
 24 38  1  0  0  0
 24 39  1  0  0  0
 25 26  1  0  0  0
 25 40  1  0  0  0
 25 41  1  0  0  0
 26 27  1  0  0  0
 26 42  1  0  0  0
 26 43  1  0  0  0
 27 28  1  0  0  0
 27 29  1  0  0  0
 27 50  1  0  0  0
 28 44  1  0  0  0
 28 45  1  0  0  0
 28 46  1  0  0  0
 29 47  1  0  0  0
 29 48  1  0  0  0
 29 49  1  0  0  0
M  CHG  1  27   1
M  END
> <chembl_id>
CHEMBL1208849

> <chembl_pref_name>
None

> <s_m_source_file>
sdf/inactives_sanitized.sdf

> <i_m_source_file_index>
126

> <i_lp_mmshare_version>
49012

> <i_m_ct_stereo_status>
1

> <i_f3d_flags>
0

> <s_epik_input>
W0NIM11OKFtDSDNdKVtDSDJdW0NIMl1uKFtjSF1uMSljKGMxMilbY0hdYyhuYzJDI04pLWMzW2NIXWMoQyhGKShGKUYpYyhbY0hdW2NIXTMpT1tDSDJdW0NIM10=

> <s_epik_cmdline>
J2VwaWtfcHl0aG9uJywgJy1waHQnLCAnMC41JywgJy1waCcsICc3LjUnLCAnLW50JywgJy1tYScsICcyMDAnLCAnLWltYWUnLCAnPGluZmlsZS5tYWU+JywgJy1vbWFlJywgJzxvdXRmaWxlLm1hZT4n

> <r_lp_tautomer_probability>
1

> <r_epik_Ionization_Penalty>
  0.0581

> <r_epik_Ionization_Penalty_Charging>
  0.0581

> <r_epik_Ionization_Penalty_Neutral>
  0.0000

> <r_epik_State_Penalty>
  0.0502

> <r_epik_Charging_Adjusted_Penalty>
0.108256981779499

> <i_epik_Tot_Q>
1

> <i_epik_Tot_abs_Q>
1

> <s_lp_Force_Field>
OPLS3e

> <r_lp_Energy>
42.55025

> <b_lp_Chiralities_Consistent>
1

> <s_lp_Variant>
sdf/inactives_sanitized.sdf:126-1

$$$$
sdf/inactives_sanitized.sdf:127
                    3D
 Schrodinger Suite 2020-1.
 56 59  0  0  1  0            999 V2000
    4.1713    6.0323    4.3072 C   0  0  0  0  0  0
    2.8049    5.7004    3.7428 C   0  0  0  0  0  0
    2.9269    6.3793    5.0903 C   0  0  0  0  0  0
   -6.4416   -3.4791   -1.2592 C   0  0  0  0  0  0
   -5.4604   -4.3058   -0.7161 C   0  0  0  0  0  0
   -4.1357   -3.8776   -0.6883 C   0  0  0  0  0  0
   -3.7972   -2.6236   -1.2043 C   0  0  0  0  0  0
   -4.7862   -1.7984   -1.7464 C   0  0  0  0  0  0
   -6.1107   -2.2273   -1.7742 C   0  0  0  0  0  0
   -2.3506   -2.1536   -1.1732 C   0  0  0  0  0  0
   -1.9974   -1.3837    0.1147 C   0  0  0  0  0  0
   -0.5741   -1.0834    0.2542 N   0  0  0  0  0  0
    0.0801   -0.1181   -0.4198 C   0  0  0  0  0  0
    1.5666   -0.0107   -0.1415 C   0  0  0  0  0  0
   -0.4786    0.6432   -1.2115 O   0  0  0  0  0  0
    2.2830    1.2147   -0.1482 C   0  0  0  0  0  0
    3.6267    1.2465    0.0914 N   0  0  0  0  0  0
    4.2398    0.0665    0.3452 C   0  0  0  0  0  0
    3.6532   -1.1520    0.3801 N   0  0  0  0  0  0
    2.3200   -1.1678    0.1318 C   0  0  0  0  0  0
    1.6281    2.4433   -0.3817 N   0  0  0  0  0  0
    5.6664    0.1165    0.6142 C   0  0  0  0  0  0
    6.8031    0.1564    0.8289 N   0  0  0  0  0  0
    2.2666    3.7479   -0.2061 C   0  0  0  0  0  0
    2.0327    4.3914    1.1811 C   0  0  0  0  0  0
    2.5952    5.8325    1.2124 C   0  0  0  0  0  0
    2.2897    6.5373    2.5495 C   0  0  0  0  0  0
    2.3752    4.2159    3.7121 C   0  0  0  0  0  0
    2.6762    3.5847    2.3385 C   0  0  0  0  0  0
    4.7488    6.8333    3.8446 H   0  0  0  0  0  0
    4.8065    5.2162    4.6530 H   0  0  0  0  0  0
    2.6903    5.8082    5.9885 H   0  0  0  0  0  0
    2.6312    7.4252    5.1785 H   0  0  0  0  0  0
   -7.4689   -3.8118   -1.2812 H   0  0  0  0  0  0
   -5.7261   -5.2742   -0.3187 H   0  0  0  0  0  0
   -3.3759   -4.5192   -0.2660 H   0  0  0  0  0  0
   -4.5305   -0.8270   -2.1448 H   0  0  0  0  0  0
   -6.8778   -1.5927   -2.1932 H   0  0  0  0  0  0
   -1.6925   -3.0168   -1.2890 H   0  0  0  0  0  0
   -2.1544   -1.5325   -2.0488 H   0  0  0  0  0  0
   -2.6230   -0.4949    0.2196 H   0  0  0  0  0  0
   -2.2889   -1.9899    0.9735 H   0  0  0  0  0  0
   -0.0601   -1.6469    0.9156 H   0  0  0  0  0  0
    1.8646   -2.1478    0.1484 H   0  0  0  0  0  0
    0.6204    2.4262   -0.4534 H   0  0  0  0  0  0
    3.3372    3.6812   -0.4038 H   0  0  0  0  0  0
    1.8931    4.4070   -0.9903 H   0  0  0  0  0  0
    0.9575    4.4453    1.3656 H   0  0  0  0  0  0
    3.6696    5.8210    1.0197 H   0  0  0  0  0  0
    2.1730    6.4115    0.3896 H   0  0  0  0  0  0
    2.7225    7.5389    2.5523 H   0  0  0  0  0  0
    1.2118    6.6736    2.6474 H   0  0  0  0  0  0
    2.8673    3.6451    4.5011 H   0  0  0  0  0  0
    1.3049    4.1483    3.9126 H   0  0  0  0  0  0
    2.3164    2.5561    2.3294 H   0  0  0  0  0  0
    3.7533    3.5024    2.1823 H   0  0  0  0  0  0
  1  3  1  0  0  0
  1  2  1  0  0  0
  1 30  1  0  0  0
  1 31  1  0  0  0
  2  3  1  0  0  0
  2 27  1  0  0  0
  2 28  1  0  0  0
  3 32  1  0  0  0
  3 33  1  0  0  0
  4  9  2  0  0  0
  4  5  1  0  0  0
  4 34  1  0  0  0
  5  6  2  0  0  0
  5 35  1  0  0  0
  6  7  1  0  0  0
  6 36  1  0  0  0
  7  8  2  0  0  0
  7 10  1  0  0  0
  8  9  1  0  0  0
  8 37  1  0  0  0
  9 38  1  0  0  0
 10 11  1  0  0  0
 10 39  1  0  0  0
 10 40  1  0  0  0
 11 12  1  0  0  0
 11 41  1  0  0  0
 11 42  1  0  0  0
 12 13  1  0  0  0
 12 43  1  0  0  0
 13 15  2  0  0  0
 13 14  1  0  0  0
 14 16  1  0  0  0
 14 20  2  0  0  0
 16 17  2  0  0  0
 16 21  1  0  0  0
 17 18  1  0  0  0
 18 19  2  0  0  0
 18 22  1  0  0  0
 19 20  1  0  0  0
 20 44  1  0  0  0
 21 24  1  0  0  0
 21 45  1  0  0  0
 22 23  3  0  0  0
 24 25  1  0  0  0
 24 46  1  0  0  0
 24 47  1  0  0  0
 25 26  1  0  0  0
 25 29  1  0  0  0
 25 48  1  0  0  0
 26 27  1  0  0  0
 26 49  1  0  0  0
 26 50  1  0  0  0
 27 51  1  0  0  0
 27 52  1  0  0  0
 28 29  1  0  0  0
 28 53  1  0  0  0
 28 54  1  0  0  0
 29 55  1  0  0  0
 29 56  1  0  0  0
M  END
> <chembl_id>
CHEMBL515663

> <chembl_pref_name>
None

> <s_m_source_file>
sdf/inactives_sanitized.sdf

> <i_m_source_file_index>
127

> <i_lp_mmshare_version>
49012

> <i_m_ct_stereo_status>
1

> <i_f3d_flags>
0

> <s_epik_input>
W0NIMl0xW0NIMl1DMTJbQ0gyXVtDSDJdW0NIXShbQ0gyXVtDSDJdMilbQ0gyXVtOSF1jKG5jKEMjTiluW2NIXTMpYzNDKD1PKVtOSF1bQ0gyXVtDSDJdYzRbY0hdW2NIXVtjSF1bY0hdW2NIXTQ=

> <s_epik_cmdline>
J2VwaWtfcHl0aG9uJywgJy1waHQnLCAnMC41JywgJy1waCcsICc3LjUnLCAnLW50JywgJy1tYScsICcyMDAnLCAnLWltYWUnLCAnPGluZmlsZS5tYWU+JywgJy1vbWFlJywgJzxvdXRmaWxlLm1hZT4n

> <r_lp_tautomer_probability>
1

> <r_epik_Ionization_Penalty>
  0.0000

> <r_epik_Ionization_Penalty_Charging>
  0.0000

> <r_epik_Ionization_Penalty_Neutral>
  0.0000

> <r_epik_State_Penalty>
 -0.0000

> <r_epik_Charging_Adjusted_Penalty>
0

> <i_epik_Tot_Q>
0

> <i_epik_Tot_abs_Q>
0

> <s_lp_Force_Field>
OPLS3e

> <r_lp_Energy>
27.509379

> <b_lp_Chiralities_Consistent>
1

> <s_lp_Variant>
sdf/inactives_sanitized.sdf:127-1

$$$$
sdf/inactives_sanitized.sdf:128
                    3D
 Schrodinger Suite 2020-1.
 77 79  0  0  1  0            999 V2000
   -0.9405    0.9156    0.0947 C   0  0  0  0  0  0
   -0.3479   -0.2937    0.4486 N   0  0  0  0  0  0
    1.0253   -0.6339    0.0167 C   0  0  2  0  0  0
    1.0532   -0.8795   -1.5009 C   0  0  0  0  0  0
    2.4768   -0.7345   -2.1823 C   0  0  0  0  0  0
    0.0610   -1.1722   -2.1775 O   0  0  0  0  0  0
    3.4522   -0.3182   -1.5549 O   0  0  0  0  0  0
    2.4730   -1.1204   -3.4739 N   0  0  0  0  0  0
   -2.1860    0.9624    0.6222 O   0  0  0  0  0  0
   -0.4303    1.8054   -0.5905 O   0  0  0  0  0  0
    1.5443   -1.8962    0.7565 C   0  0  0  0  0  0
    1.6124   -1.7315    2.2894 C   0  0  0  0  0  0
    2.1752   -2.9739    3.0018 C   0  0  0  0  0  0
    2.2427   -2.8084    4.5261 C   0  0  0  0  0  0
    3.6264   -1.0827   -4.3821 C   0  0  1  0  0  0
    4.8523   -1.8758   -3.9093 C   0  0  0  0  0  0
    4.7064   -3.1372   -3.3181 C   0  0  0  0  0  0
    5.8271   -3.8406   -2.8852 C   0  0  0  0  0  0
    7.0939   -3.2826   -3.0399 C   0  0  0  0  0  0
    7.2497   -2.0270   -3.6226 C   0  0  0  0  0  0
    6.1290   -1.3236   -4.0561 C   0  0  0  0  0  0
    3.2107   -1.5326   -5.7924 C   0  0  0  0  0  0
   -3.1175    2.0060    0.2972 C   0  0  1  0  0  0
   -4.1881    1.4457   -0.6835 C   0  0  0  0  0  0
   -3.5983    0.8329   -1.9387 C   0  0  0  0  0  0
   -3.6713    2.6479    1.6156 C   0  0  0  0  0  0
   -4.3938    1.6055    2.5053 C   0  0  0  0  0  0
   -4.6579    3.7957    1.2894 C   0  0  0  0  0  0
   -2.4953    3.2565    2.4204 C   0  0  0  0  0  0
   -2.6290    1.5076   -2.6045 O   0  0  0  0  0  0
   -2.2914    0.6433   -3.5953 C   0  0  0  0  0  0
   -3.0195   -0.4490   -3.5738 N   0  0  0  0  0  0
   -3.8705   -0.3283   -2.4789 N   0  0  0  0  0  0
   -1.1783    1.0001   -4.5230 C   0  0  0  0  0  0
   -0.9818    0.2729   -5.7020 C   0  0  0  0  0  0
    0.0619    0.6037   -6.5619 C   0  0  0  0  0  0
    0.9164    1.6551   -6.2386 C   0  0  0  0  0  0
    0.7335    2.3813   -5.0645 C   0  0  0  0  0  0
   -0.3149    2.0555   -4.2084 C   0  0  0  0  0  0
   -0.7076   -0.7650    1.2654 H   0  0  0  0  0  0
    1.6705    0.2002    0.3033 H   0  0  0  0  0  0
    1.5942   -1.4061   -3.8816 H   0  0  0  0  0  0
    0.9014   -2.7488    0.5263 H   0  0  0  0  0  0
    2.5424   -2.1553    0.3976 H   0  0  0  0  0  0
    2.2323   -0.8670    2.5322 H   0  0  0  0  0  0
    0.6174   -1.5187    2.6831 H   0  0  0  0  0  0
    1.5598   -3.8430    2.7642 H   0  0  0  0  0  0
    3.1742   -3.1936    2.6226 H   0  0  0  0  0  0
    2.6484   -3.7039    4.9973 H   0  0  0  0  0  0
    1.2533   -2.6312    4.9495 H   0  0  0  0  0  0
    2.8815   -1.9699    4.8053 H   0  0  0  0  0  0
    3.9089   -0.0300   -4.4586 H   0  0  0  0  0  0
    3.7260   -3.5744   -3.1962 H   0  0  0  0  0  0
    5.7140   -4.8145   -2.4321 H   0  0  0  0  0  0
    7.9636   -3.8281   -2.7043 H   0  0  0  0  0  0
    8.2354   -1.6005   -3.7370 H   0  0  0  0  0  0
    6.2556   -0.3498   -4.5065 H   0  0  0  0  0  0
    4.0290   -1.4125   -6.5033 H   0  0  0  0  0  0
    2.3718   -0.9467   -6.1653 H   0  0  0  0  0  0
    2.9095   -2.5810   -5.8063 H   0  0  0  0  0  0
   -2.6025    2.8096   -0.2333 H   0  0  0  0  0  0
   -4.8112    0.7100   -0.1749 H   0  0  0  0  0  0
   -4.8601    2.2489   -0.9825 H   0  0  0  0  0  0
   -4.7306    2.0492    3.4434 H   0  0  0  0  0  0
   -3.7416    0.7704    2.7628 H   0  0  0  0  0  0
   -5.2761    1.1918    2.0168 H   0  0  0  0  0  0
   -5.5758    3.4290    0.8294 H   0  0  0  0  0  0
   -4.2158    4.5226    0.6066 H   0  0  0  0  0  0
   -4.9561    4.3364    2.1888 H   0  0  0  0  0  0
   -2.8422    3.7680    3.3194 H   0  0  0  0  0  0
   -1.9402    3.9848    1.8275 H   0  0  0  0  0  0
   -1.7850    2.4943    2.7434 H   0  0  0  0  0  0
   -1.6368   -0.5477   -5.9567 H   0  0  0  0  0  0
    0.2125    0.0428   -7.4724 H   0  0  0  0  0  0
    1.7294    1.9077   -6.9031 H   0  0  0  0  0  0
    1.4016    3.1935   -4.8185 H   0  0  0  0  0  0
   -0.4450    2.6220   -3.2977 H   0  0  0  0  0  0
  1  2  1  0  0  0
  1  9  1  0  0  0
  1 10  2  0  0  0
  2  3  1  0  0  0
  2 40  1  0  0  0
  3 11  1  0  0  0
  3  4  1  0  0  0
  3 41  1  0  0  0
  4  6  2  0  0  0
  4  5  1  0  0  0
  5  7  2  0  0  0
  5  8  1  0  0  0
  8 15  1  0  0  0
  8 42  1  0  0  0
  9 23  1  0  0  0
 11 12  1  0  0  0
 11 43  1  0  0  0
 11 44  1  0  0  0
 12 13  1  0  0  0
 12 45  1  0  0  0
 12 46  1  0  0  0
 13 14  1  0  0  0
 13 47  1  0  0  0
 13 48  1  0  0  0
 14 49  1  0  0  0
 14 50  1  0  0  0
 14 51  1  0  0  0
 15 22  1  0  0  0
 15 16  1  0  0  0
 15 52  1  0  0  0
 16 21  1  0  0  0
 16 17  2  0  0  0
 17 18  1  0  0  0
 17 53  1  0  0  0
 18 19  2  0  0  0
 18 54  1  0  0  0
 19 20  1  0  0  0
 19 55  1  0  0  0
 20 21  2  0  0  0
 20 56  1  0  0  0
 21 57  1  0  0  0
 22 58  1  0  0  0
 22 59  1  0  0  0
 22 60  1  0  0  0
 23 24  1  0  0  0
 23 26  1  0  0  0
 23 61  1  0  0  0
 24 25  1  0  0  0
 24 62  1  0  0  0
 24 63  1  0  0  0
 25 30  1  0  0  0
 25 33  2  0  0  0
 26 27  1  0  0  0
 26 28  1  0  0  0
 26 29  1  0  0  0
 27 64  1  0  0  0
 27 65  1  0  0  0
 27 66  1  0  0  0
 28 67  1  0  0  0
 28 68  1  0  0  0
 28 69  1  0  0  0
 29 70  1  0  0  0
 29 71  1  0  0  0
 29 72  1  0  0  0
 30 31  1  0  0  0
 31 32  2  0  0  0
 31 34  1  0  0  0
 32 33  1  0  0  0
 34 35  2  0  0  0
 34 39  1  0  0  0
 35 36  1  0  0  0
 35 73  1  0  0  0
 36 37  2  0  0  0
 36 74  1  0  0  0
 37 38  1  0  0  0
 37 75  1  0  0  0
 38 39  2  0  0  0
 38 76  1  0  0  0
 39 77  1  0  0  0
M  END
> <chembl_id>
CHEMBL191588

> <chembl_pref_name>
None

> <i_m_ct_stereo_status>
1

> <s_m_source_file>
sdf/inactives_sanitized.sdf

> <i_m_source_file_index>
128

> <i_lp_mmshare_version>
49012

> <i_f3d_flags>
0

> <s_epik_input>
W2NIXTFbY0hdW2NIXVtjSF1bY0hdYzEtYyhubjIpb2MyW0NIMl1bQ0BASF0oQyhbQ0gzXSkoW0NIM10pW0NIM10pT0MoPU8pW05IXVtDQEBIXShbQ0gyXVtDSDJdW0NIMl1bQ0gzXSlDKD1PKUMoPU8pW05IXVtDQEhdKFtDSDNdKWMzW2NIXVtjSF1bY0hdW2NIXVtjSF0z

> <s_epik_cmdline>
J2VwaWtfcHl0aG9uJywgJy1waHQnLCAnMC41JywgJy1waCcsICc3LjUnLCAnLW50JywgJy1tYScsICcyMDAnLCAnLWltYWUnLCAnPGluZmlsZS5tYWU+JywgJy1vbWFlJywgJzxvdXRmaWxlLm1hZT4n

> <r_lp_tautomer_probability>
1

> <r_epik_Ionization_Penalty>
  0.0000

> <r_epik_Ionization_Penalty_Charging>
  0.0000

> <r_epik_Ionization_Penalty_Neutral>
  0.0000

> <r_epik_State_Penalty>
 -0.0000

> <r_epik_Charging_Adjusted_Penalty>
0

> <i_epik_Tot_Q>
0

> <i_epik_Tot_abs_Q>
0

> <s_epik_Chemistry_Notes>
This compound has an ester and may undergo hydrolysis at high or low pH.

> <s_lp_Force_Field>
OPLS3e

> <r_lp_Energy>
35.913708

> <b_lp_Chiralities_Consistent>
1

> <s_lp_Variant>
sdf/inactives_sanitized.sdf:128-1

$$$$
sdf/inactives_sanitized.sdf:129
                    3D
 Schrodinger Suite 2020-1.
 51 50  0  0  1  0            999 V2000
   -3.1662    3.5687    0.9378 C   0  0  0  0  0  0
   -1.9167    2.8995    0.6840 O   0  0  0  0  0  0
   -3.7330    3.1999    2.3313 C   0  0  0  0  0  0
   -4.2000    3.2736   -0.1773 C   0  0  0  0  0  0
   -2.8072    5.0686    0.9159 C   0  0  0  0  0  0
   -1.7438    1.5522    0.6130 C   0  0  0  0  0  0
   -0.4088    1.2919    0.3431 N   0  0  0  0  0  0
   -2.6301    0.7094    0.7637 O   0  0  0  0  0  0
    0.1332   -0.0654    0.1676 C   0  0  2  0  0  0
    1.6683   -0.0348    0.2669 C   0  0  0  0  0  0
    2.3753    1.0128    0.4244 N   0  0  0  0  0  0
   -0.3215   -0.7426   -1.1564 C   0  0  0  0  0  0
   -0.0516    0.0623   -2.4485 C   0  0  0  0  0  0
   -0.5413   -0.6604   -3.7153 C   0  0  0  0  0  0
   -0.2917    0.1444   -4.9978 C   0  0  0  0  0  0
    3.6896    0.7450    0.5033 N   0  0  0  0  0  0
    4.6068    1.7642    0.7189 C   0  0  0  0  0  0
    4.3598    2.9701    0.8166 O   0  0  0  0  0  0
    5.8443    1.2224    0.8113 O   0  0  0  0  0  0
    7.0008    2.0131    1.0932 C   0  0  0  0  0  0
    8.2339    1.2158    0.6423 C   0  0  0  0  0  0
    7.0739    2.3774    2.5897 C   0  0  0  0  0  0
   -4.5975    3.8151    2.5837 H   0  0  0  0  0  0
   -2.9869    3.3473    3.1128 H   0  0  0  0  0  0
   -4.0536    2.1596    2.3845 H   0  0  0  0  0  0
   -4.5167    2.2307   -0.1808 H   0  0  0  0  0  0
   -3.7888    3.4879   -1.1645 H   0  0  0  0  0  0
   -5.0981    3.8808   -0.0573 H   0  0  0  0  0  0
   -3.6822    5.6944    1.0970 H   0  0  0  0  0  0
   -2.3857    5.3652   -0.0456 H   0  0  0  0  0  0
   -2.0661    5.3130    1.6785 H   0  0  0  0  0  0
    0.2211    2.0733    0.2326 H   0  0  0  0  0  0
   -0.2292   -0.6757    0.9977 H   0  0  0  0  0  0
    2.0903   -1.0370    0.2002 H   0  0  0  0  0  0
    0.1425   -1.7272   -1.2430 H   0  0  0  0  0  0
   -1.3923   -0.9422   -1.0930 H   0  0  0  0  0  0
   -0.5417    1.0347   -2.3825 H   0  0  0  0  0  0
    1.0165    0.2647   -2.5401 H   0  0  0  0  0  0
   -0.0466   -1.6290   -3.7994 H   0  0  0  0  0  0
   -1.6086   -0.8693   -3.6280 H   0  0  0  0  0  0
   -0.6577   -0.3944   -5.8722 H   0  0  0  0  0  0
    0.7721    0.3330   -5.1463 H   0  0  0  0  0  0
   -0.8016    1.1079   -4.9666 H   0  0  0  0  0  0
    3.9800   -0.2195    0.4357 H   0  0  0  0  0  0
    6.9644    2.9311    0.5034 H   0  0  0  0  0  0
    9.1520    1.7757    0.8235 H   0  0  0  0  0  0
    8.1912    0.9976   -0.4252 H   0  0  0  0  0  0
    8.3130    0.2662    1.1733 H   0  0  0  0  0  0
    7.9732    2.9532    2.8096 H   0  0  0  0  0  0
    7.0881    1.4850    3.2164 H   0  0  0  0  0  0
    6.2210    2.9838    2.8954 H   0  0  0  0  0  0
  1  2  1  0  0  0
  1  4  1  0  0  0
  1  5  1  0  0  0
  1  3  1  0  0  0
  2  6  1  0  0  0
  3 23  1  0  0  0
  3 24  1  0  0  0
  3 25  1  0  0  0
  4 26  1  0  0  0
  4 27  1  0  0  0
  4 28  1  0  0  0
  5 29  1  0  0  0
  5 30  1  0  0  0
  5 31  1  0  0  0
  6  7  1  0  0  0
  6  8  2  0  0  0
  7  9  1  0  0  0
  7 32  1  0  0  0
  9 12  1  0  0  0
  9 10  1  0  0  0
  9 33  1  0  0  0
 10 11  2  0  0  0
 10 34  1  0  0  0
 11 16  1  0  0  0
 12 13  1  0  0  0
 12 35  1  0  0  0
 12 36  1  0  0  0
 13 14  1  0  0  0
 13 37  1  0  0  0
 13 38  1  0  0  0
 14 15  1  0  0  0
 14 39  1  0  0  0
 14 40  1  0  0  0
 15 41  1  0  0  0
 15 42  1  0  0  0
 15 43  1  0  0  0
 16 17  1  0  0  0
 16 44  1  0  0  0
 17 18  2  0  0  0
 17 19  1  0  0  0
 19 20  1  0  0  0
 20 21  1  0  0  0
 20 22  1  0  0  0
 20 45  1  0  0  0
 21 46  1  0  0  0
 21 47  1  0  0  0
 21 48  1  0  0  0
 22 49  1  0  0  0
 22 50  1  0  0  0
 22 51  1  0  0  0
M  END
> <chembl_id>
CHEMBL380636

> <chembl_pref_name>
None

> <i_m_ct_stereo_status>
1

> <s_m_source_file>
sdf/inactives_sanitized.sdf

> <i_m_source_file_index>
129

> <i_lp_mmshare_version>
49012

> <i_f3d_flags>
0

> <s_epik_input>
W0NIM11DKFtDSDNdKShbQ0gzXSlPQyg9TylbTkhdW0NAQEhdKFtDSDJdW0NIMl1bQ0gyXVtDSDNdKS9bQ0hdPU4vW05IXUMoPU8pT1tDSF0oW0NIM10pW0NIM10=

> <s_epik_cmdline>
J2VwaWtfcHl0aG9uJywgJy1waHQnLCAnMC41JywgJy1waCcsICc3LjUnLCAnLW50JywgJy1tYScsICcyMDAnLCAnLWltYWUnLCAnPGluZmlsZS5tYWU+JywgJy1vbWFlJywgJzxvdXRmaWxlLm1hZT4n

> <r_lp_tautomer_probability>
1

> <r_epik_Ionization_Penalty>
  0.0019

> <r_epik_Ionization_Penalty_Charging>
  0.0000

> <r_epik_Ionization_Penalty_Neutral>
  0.0019

> <r_epik_State_Penalty>
 -0.0000

> <r_epik_Charging_Adjusted_Penalty>
0

> <i_epik_Tot_Q>
0

> <i_epik_Tot_abs_Q>
0

> <s_epik_Chemistry_Notes>
This compound has an ester and may undergo hydrolysis at high or low pH. This compound has an imine and may undergo hydrolysis.

> <s_lp_Force_Field>
OPLS3e

> <r_lp_Energy>
10.382782

> <b_lp_Chiralities_Consistent>
1

> <s_lp_Variant>
sdf/inactives_sanitized.sdf:129-1

$$$$
sdf/inactives_sanitized.sdf:130
                    3D
 Schrodinger Suite 2020-1.
 53 53  0  0  1  0            999 V2000
   -1.8583    3.1867    1.9840 C   0  0  0  0  0  0
   -1.4074    1.0743    0.7485 C   0  0  0  0  0  0
   -0.5082    0.6441   -0.2187 N   0  0  0  0  0  0
   -0.5774   -0.7209   -0.7662 C   0  0  2  0  0  0
    0.8836   -1.1568   -0.8709 C   0  0  0  0  0  0
    1.6283   -1.4362    0.5068 C   0  0  0  0  0  0
    1.4715   -1.3311   -1.9435 O   0  0  0  0  0  0
    1.0235   -1.4307    1.5804 O   0  0  0  0  0  0
    2.9465   -1.6592    0.3440 N   0  0  0  0  0  0
   -1.1477    2.3800    1.0261 O   0  0  0  0  0  0
   -2.2977    0.3997    1.2691 O   0  0  0  0  0  0
   -1.3064   -0.7800   -2.1378 C   0  0  0  0  0  0
   -2.8033   -0.4151   -2.0703 C   0  0  0  0  0  0
   -3.5192   -0.5699   -3.4236 C   0  0  0  0  0  0
   -5.0047   -0.1903   -3.3603 C   0  0  0  0  0  0
   -1.7112    2.6198    3.4180 C   0  0  0  0  0  0
   -3.3505    3.3389    1.5975 C   0  0  0  0  0  0
   -1.1696    4.5648    1.9085 C   0  0  0  0  0  0
    3.8796   -1.9937    1.4189 C   0  0  0  0  0  0
    3.6958   -3.3977    1.9842 C   0  0  0  0  0  0
    4.2552   -4.4933    1.3204 C   0  0  0  0  0  0
    4.1183   -5.7729    1.8523 C   0  0  0  0  0  0
    3.4323   -5.9516    3.0517 C   0  0  0  0  0  0
    2.8855   -4.8621    3.7267 C   0  0  0  0  0  0
    3.0235   -3.5823    3.1960 C   0  0  0  0  0  0
    0.0741    1.3237   -0.6858 H   0  0  0  0  0  0
   -1.0875   -1.4098   -0.0877 H   0  0  0  0  0  0
    3.3245   -1.6448   -0.5925 H   0  0  0  0  0  0
   -0.8191   -0.1065   -2.8459 H   0  0  0  0  0  0
   -1.2153   -1.7868   -2.5504 H   0  0  0  0  0  0
   -2.9152    0.6148   -1.7295 H   0  0  0  0  0  0
   -3.2971   -1.0429   -1.3267 H   0  0  0  0  0  0
   -3.0247    0.0501   -4.1727 H   0  0  0  0  0  0
   -3.4290   -1.5998   -3.7716 H   0  0  0  0  0  0
   -5.4776   -0.3018   -4.3365 H   0  0  0  0  0  0
   -5.1354    0.8459   -3.0465 H   0  0  0  0  0  0
   -5.5450   -0.8242   -2.6566 H   0  0  0  0  0  0
   -2.1292    3.3017    4.1593 H   0  0  0  0  0  0
   -0.6633    2.4596    3.6743 H   0  0  0  0  0  0
   -2.2207    1.6638    3.5385 H   0  0  0  0  0  0
   -3.8970    2.3998    1.6837 H   0  0  0  0  0  0
   -3.4593    3.6813    0.5675 H   0  0  0  0  0  0
   -3.8551    4.0633    2.2382 H   0  0  0  0  0  0
   -1.6261    5.2807    2.5933 H   0  0  0  0  0  0
   -1.2304    4.9875    0.9045 H   0  0  0  0  0  0
   -0.1109    4.4972    2.1634 H   0  0  0  0  0  0
    4.8905   -1.9113    1.0172 H   0  0  0  0  0  0
    3.8209   -1.2497    2.2164 H   0  0  0  0  0  0
    4.7913   -4.3550    0.3927 H   0  0  0  0  0  0
    4.5436   -6.6225    1.3388 H   0  0  0  0  0  0
    3.3264   -6.9441    3.4641 H   0  0  0  0  0  0
    2.3585   -5.0090    4.6580 H   0  0  0  0  0  0
    2.6016   -2.7378    3.7217 H   0  0  0  0  0  0
  1 10  1  0  0  0
  1 16  1  0  0  0
  1 17  1  0  0  0
  1 18  1  0  0  0
  2  3  1  0  0  0
  2 10  1  0  0  0
  2 11  2  0  0  0
  3  4  1  0  0  0
  3 26  1  0  0  0
  4  5  1  0  0  0
  4 12  1  0  0  0
  4 27  1  0  0  0
  5  6  1  0  0  0
  5  7  2  0  0  0
  6  8  2  0  0  0
  6  9  1  0  0  0
  9 19  1  0  0  0
  9 28  1  0  0  0
 12 13  1  0  0  0
 12 29  1  0  0  0
 12 30  1  0  0  0
 13 14  1  0  0  0
 13 31  1  0  0  0
 13 32  1  0  0  0
 14 15  1  0  0  0
 14 33  1  0  0  0
 14 34  1  0  0  0
 15 35  1  0  0  0
 15 36  1  0  0  0
 15 37  1  0  0  0
 16 38  1  0  0  0
 16 39  1  0  0  0
 16 40  1  0  0  0
 17 41  1  0  0  0
 17 42  1  0  0  0
 17 43  1  0  0  0
 18 44  1  0  0  0
 18 45  1  0  0  0
 18 46  1  0  0  0
 19 20  1  0  0  0
 19 47  1  0  0  0
 19 48  1  0  0  0
 20 21  2  0  0  0
 20 25  1  0  0  0
 21 22  1  0  0  0
 21 49  1  0  0  0
 22 23  2  0  0  0
 22 50  1  0  0  0
 23 24  1  0  0  0
 23 51  1  0  0  0
 24 25  2  0  0  0
 24 52  1  0  0  0
 25 53  1  0  0  0
M  END
> <chembl_id>
CHEMBL162793

> <chembl_pref_name>
None

> <i_m_ct_stereo_status>
1

> <s_m_source_file>
sdf/inactives_sanitized.sdf

> <i_m_source_file_index>
130

> <i_lp_mmshare_version>
49012

> <i_f3d_flags>
0

> <s_epik_input>
W0NIM11DKFtDSDNdKShbQ0gzXSlPQyg9TylbTkhdW0NAQEhdKFtDSDJdW0NIMl1bQ0gyXVtDSDNdKUMoPU8pQyg9TylbTkhdW0NIMl1jMVtjSF1bY0hdW2NIXVtjSF1bY0hdMQ==

> <s_epik_cmdline>
J2VwaWtfcHl0aG9uJywgJy1waHQnLCAnMC41JywgJy1waCcsICc3LjUnLCAnLW50JywgJy1tYScsICcyMDAnLCAnLWltYWUnLCAnPGluZmlsZS5tYWU+JywgJy1vbWFlJywgJzxvdXRmaWxlLm1hZT4n

> <r_lp_tautomer_probability>
1

> <r_epik_Ionization_Penalty>
  0.0000

> <r_epik_Ionization_Penalty_Charging>
  0.0000

> <r_epik_Ionization_Penalty_Neutral>
  0.0000

> <r_epik_State_Penalty>
 -0.0000

> <r_epik_Charging_Adjusted_Penalty>
0

> <i_epik_Tot_Q>
0

> <i_epik_Tot_abs_Q>
0

> <s_epik_Chemistry_Notes>
This compound has an ester and may undergo hydrolysis at high or low pH.

> <s_lp_Force_Field>
OPLS3e

> <r_lp_Energy>
22.097218

> <b_lp_Chiralities_Consistent>
1

> <s_lp_Variant>
sdf/inactives_sanitized.sdf:130-1

$$$$
sdf/inactives_sanitized.sdf:131
                    3D
 Schrodinger Suite 2020-1.
 35 36  0  0  1  0            999 V2000
   -0.6309    1.2582    0.0250 C   0  0  0  0  0  0
    0.0284    0.0442   -0.0783 N   0  0  0  0  0  0
   -0.5371   -1.2130   -0.2655 C   0  0  0  0  0  0
   -1.9245   -1.1759   -0.1587 N   0  0  0  0  0  0
   -2.6912   -0.0075   -0.2099 N   0  0  0  0  0  0
   -2.0814    1.1119   -0.0977 C   0  0  0  0  0  0
    0.1147   -2.2450   -0.4609 O   0  0  0  0  0  0
   -2.9033    2.3036   -0.1031 C   0  0  0  0  0  0
   -3.5947    3.2321   -0.1125 N   0  0  0  0  0  0
   -0.0849    2.3521    0.1942 O   0  0  0  0  0  0
    1.5089    0.0943    0.0029 C   0  0  0  0  0  0
    2.0500   -0.1032    1.4330 C   0  0  0  0  0  0
    3.5812   -0.0496    1.4934 C   0  0  0  0  0  0
   -2.6902   -2.3741   -0.0735 C   0  0  0  0  0  0
   -2.3124   -3.4185    0.7904 C   0  0  0  0  0  0
   -3.0693   -4.5954    0.8812 C   0  0  0  0  0  0
   -4.2226   -4.7224    0.1030 C   0  0  0  0  0  0
   -4.6163   -3.6957   -0.7519 C   0  0  0  0  0  0
   -3.8582   -2.5301   -0.8393 C   0  0  0  0  0  0
   -2.6807   -5.7491    1.8046 C   0  0  0  0  0  0
   -1.4914   -5.5597    2.5473 O   0  0  0  0  0  0
    1.9600   -0.6502   -0.6558 H   0  0  0  0  0  0
    1.8924    1.0360   -0.3945 H   0  0  0  0  0  0
    1.6440    0.6669    2.0906 H   0  0  0  0  0  0
    1.7154   -1.0644    1.8261 H   0  0  0  0  0  0
    3.9351   -0.1860    2.5157 H   0  0  0  0  0  0
    3.9583    0.9100    1.1383 H   0  0  0  0  0  0
    4.0285   -0.8334    0.8810 H   0  0  0  0  0  0
   -1.4282   -3.3073    1.4013 H   0  0  0  0  0  0
   -4.8197   -5.6213    0.1604 H   0  0  0  0  0  0
   -5.5096   -3.8041   -1.3494 H   0  0  0  0  0  0
   -4.1818   -1.7521   -1.5159 H   0  0  0  0  0  0
   -3.5022   -5.9301    2.4991 H   0  0  0  0  0  0
   -2.5729   -6.6521    1.2024 H   0  0  0  0  0  0
   -1.3252   -6.3509    3.0651 H   0  0  0  0  0  0
  1  6  1  0  0  0
  1  2  1  0  0  0
  1 10  2  0  0  0
  2  3  1  0  0  0
  2 11  1  0  0  0
  3  7  2  0  0  0
  3  4  1  0  0  0
  4 14  1  0  0  0
  4  5  1  0  0  0
  5  6  2  0  0  0
  6  8  1  0  0  0
  8  9  3  0  0  0
 11 12  1  0  0  0
 11 22  1  0  0  0
 11 23  1  0  0  0
 12 13  1  0  0  0
 12 24  1  0  0  0
 12 25  1  0  0  0
 13 26  1  0  0  0
 13 27  1  0  0  0
 13 28  1  0  0  0
 14 15  2  0  0  0
 14 19  1  0  0  0
 15 16  1  0  0  0
 15 29  1  0  0  0
 16 17  2  0  0  0
 16 20  1  0  0  0
 17 18  1  0  0  0
 17 30  1  0  0  0
 18 19  2  0  0  0
 18 31  1  0  0  0
 19 32  1  0  0  0
 20 21  1  0  0  0
 20 33  1  0  0  0
 20 34  1  0  0  0
 21 35  1  0  0  0
M  END
> <chembl_id>
CHEMBL1077323

> <chembl_pref_name>
None

> <s_m_source_file>
sdf/inactives_sanitized.sdf

> <i_m_source_file_index>
131

> <i_lp_mmshare_version>
49012

> <i_m_ct_stereo_status>
1

> <i_f3d_flags>
0

> <s_epik_input>
W0NIM11bQ0gyXVtDSDJdbihjMT1PKWMoPU8pbihuYzFDI04pLWMyW2NIXWMoW0NIMl1bT0hdKVtjSF1bY0hdW2NIXTI=

> <s_epik_cmdline>
J2VwaWtfcHl0aG9uJywgJy1waHQnLCAnMC41JywgJy1waCcsICc3LjUnLCAnLW50JywgJy1tYScsICcyMDAnLCAnLWltYWUnLCAnPGluZmlsZS5tYWU+JywgJy1vbWFlJywgJzxvdXRmaWxlLm1hZT4n

> <r_lp_tautomer_probability>
1

> <r_epik_Ionization_Penalty>
  0.0000

> <r_epik_Ionization_Penalty_Charging>
  0.0000

> <r_epik_Ionization_Penalty_Neutral>
  0.0000

> <r_epik_State_Penalty>
 -0.0000

> <r_epik_Charging_Adjusted_Penalty>
1.76235455904074e-12

> <i_epik_Tot_Q>
0

> <i_epik_Tot_abs_Q>
0

> <s_lp_Force_Field>
OPLS3e

> <r_lp_Energy>
55.099578

> <b_lp_Chiralities_Consistent>
1

> <s_lp_Variant>
sdf/inactives_sanitized.sdf:131-1

$$$$
sdf/inactives_sanitized.sdf:132
                    3D
 Schrodinger Suite 2020-1.
 56 56  0  0  1  0            999 V2000
   -2.1109    3.2825    2.2688 C   0  0  0  0  0  0
   -1.2416    1.2031    1.2152 C   0  0  0  0  0  0
   -0.2457    0.8730    0.3038 N   0  0  0  0  0  0
    0.0034   -0.5287   -0.0773 C   0  0  2  0  0  0
    1.5226   -0.7080    0.0377 C   0  0  0  0  0  0
    2.2009   -0.5760    1.4713 C   0  0  0  0  0  0
    2.2492   -0.9653   -0.9247 O   0  0  0  0  0  0
    3.4185   -0.4258    1.5832 O   0  0  0  0  0  0
    1.3195   -0.6424    2.4880 N   0  0  0  0  0  0
   -1.2403    2.5515    1.3850 O   0  0  0  0  0  0
   -1.9946    0.4143    1.7896 O   0  0  0  0  0  0
   -0.5260   -0.8542   -1.5007 C   0  0  0  0  0  0
   -2.0590   -0.7476   -1.6326 C   0  0  0  0  0  0
   -2.5695   -1.1520   -3.0265 C   0  0  0  0  0  0
   -4.0947   -1.0444   -3.1581 C   0  0  0  0  0  0
   -1.9180    2.8581    3.7467 C   0  0  0  0  0  0
   -3.5917    3.1354    1.8401 C   0  0  0  0  0  0
   -1.6712    4.7516    2.1037 C   0  0  0  0  0  0
    1.6318   -0.4868    3.9124 C   0  0  1  0  0  0
    2.2224    0.8747    4.3082 C   0  0  0  0  0  0
    1.8663    2.0487    3.6307 C   0  0  0  0  0  0
    2.4223    3.2695    4.0017 C   0  0  0  0  0  0
    3.3417    3.3186    5.0464 C   0  0  0  0  0  0
    3.7102    2.1577    5.7222 C   0  0  0  0  0  0
    3.1519    0.9370    5.3518 C   0  0  0  0  0  0
    0.3799   -0.7938    4.7516 C   0  0  0  0  0  0
    0.2280    1.6072   -0.2021 H   0  0  0  0  0  0
   -0.4697   -1.2350    0.6092 H   0  0  0  0  0  0
    0.3460   -0.7958    2.2680 H   0  0  0  0  0  0
   -0.0673   -0.1825   -2.2296 H   0  0  0  0  0  0
   -0.2248   -1.8672   -1.7752 H   0  0  0  0  0  0
   -2.3757    0.2750   -1.4231 H   0  0  0  0  0  0
   -2.5322   -1.3787   -0.8786 H   0  0  0  0  0  0
   -2.1010   -0.5233   -3.7851 H   0  0  0  0  0  0
   -2.2641   -2.1759   -3.2465 H   0  0  0  0  0  0
   -4.4206   -1.3377   -4.1564 H   0  0  0  0  0  0
   -4.4360   -0.0231   -2.9855 H   0  0  0  0  0  0
   -4.6006   -1.6926   -2.4416 H   0  0  0  0  0  0
   -2.4923    3.4956    4.4200 H   0  0  0  0  0  0
   -0.8725    2.9276    4.0470 H   0  0  0  0  0  0
   -2.2374    1.8324    3.9293 H   0  0  0  0  0  0
   -3.9628    2.1205    1.9823 H   0  0  0  0  0  0
   -3.7245    3.3816    0.7858 H   0  0  0  0  0  0
   -4.2394    3.7981    2.4152 H   0  0  0  0  0  0
   -2.2621    5.4215    2.7298 H   0  0  0  0  0  0
   -1.7790    5.0880    1.0713 H   0  0  0  0  0  0
   -0.6233    4.8875    2.3764 H   0  0  0  0  0  0
    2.3709   -1.2571    4.1460 H   0  0  0  0  0  0
    1.1553    2.0218    2.8190 H   0  0  0  0  0  0
    2.1422    4.1730    3.4805 H   0  0  0  0  0  0
    3.7749    4.2653    5.3335 H   0  0  0  0  0  0
    4.4266    2.2039    6.5291 H   0  0  0  0  0  0
    3.4419    0.0394    5.8789 H   0  0  0  0  0  0
    0.6063   -0.7870    5.8184 H   0  0  0  0  0  0
   -0.0273   -1.7774    4.5137 H   0  0  0  0  0  0
   -0.4080   -0.0601    4.5742 H   0  0  0  0  0  0
  1 10  1  0  0  0
  1 16  1  0  0  0
  1 17  1  0  0  0
  1 18  1  0  0  0
  2 10  1  0  0  0
  2 11  2  0  0  0
  2  3  1  0  0  0
  3  4  1  0  0  0
  3 27  1  0  0  0
  4  5  1  0  0  0
  4 12  1  0  0  0
  4 28  1  0  0  0
  5  6  1  0  0  0
  5  7  2  0  0  0
  6  8  2  0  0  0
  6  9  1  0  0  0
  9 19  1  0  0  0
  9 29  1  0  0  0
 12 13  1  0  0  0
 12 30  1  0  0  0
 12 31  1  0  0  0
 13 14  1  0  0  0
 13 32  1  0  0  0
 13 33  1  0  0  0
 14 15  1  0  0  0
 14 34  1  0  0  0
 14 35  1  0  0  0
 15 36  1  0  0  0
 15 37  1  0  0  0
 15 38  1  0  0  0
 16 39  1  0  0  0
 16 40  1  0  0  0
 16 41  1  0  0  0
 17 42  1  0  0  0
 17 43  1  0  0  0
 17 44  1  0  0  0
 18 45  1  0  0  0
 18 46  1  0  0  0
 18 47  1  0  0  0
 19 20  1  0  0  0
 19 26  1  0  0  0
 19 48  1  0  0  0
 20 21  2  0  0  0
 20 25  1  0  0  0
 21 22  1  0  0  0
 21 49  1  0  0  0
 22 23  2  0  0  0
 22 50  1  0  0  0
 23 24  1  0  0  0
 23 51  1  0  0  0
 24 25  2  0  0  0
 24 52  1  0  0  0
 25 53  1  0  0  0
 26 54  1  0  0  0
 26 55  1  0  0  0
 26 56  1  0  0  0
M  END
> <chembl_id>
CHEMBL162812

> <chembl_pref_name>
None

> <i_m_ct_stereo_status>
1

> <s_m_source_file>
sdf/inactives_sanitized.sdf

> <i_m_source_file_index>
132

> <i_lp_mmshare_version>
49012

> <i_f3d_flags>
0

> <s_epik_input>
W0NIM11DKFtDSDNdKShbQ0gzXSlPQyg9TylbTkhdW0NAQEhdKFtDSDJdW0NIMl1bQ0gyXVtDSDNdKUMoPU8pQyg9TylbTkhdW0NASF0oW0NIM10pYzFbY0hdW2NIXVtjSF1bY0hdW2NIXTE=

> <s_epik_cmdline>
J2VwaWtfcHl0aG9uJywgJy1waHQnLCAnMC41JywgJy1waCcsICc3LjUnLCAnLW50JywgJy1tYScsICcyMDAnLCAnLWltYWUnLCAnPGluZmlsZS5tYWU+JywgJy1vbWFlJywgJzxvdXRmaWxlLm1hZT4n

> <r_lp_tautomer_probability>
1

> <r_epik_Ionization_Penalty>
  0.0000

> <r_epik_Ionization_Penalty_Charging>
  0.0000

> <r_epik_Ionization_Penalty_Neutral>
  0.0000

> <r_epik_State_Penalty>
 -0.0000

> <r_epik_Charging_Adjusted_Penalty>
0

> <i_epik_Tot_Q>
0

> <i_epik_Tot_abs_Q>
0

> <s_epik_Chemistry_Notes>
This compound has an ester and may undergo hydrolysis at high or low pH.

> <s_lp_Force_Field>
OPLS3e

> <r_lp_Energy>
23.518117

> <b_lp_Chiralities_Consistent>
1

> <s_lp_Variant>
sdf/inactives_sanitized.sdf:132-1

$$$$
sdf/inactives_sanitized.sdf:133
                    3D
 Schrodinger Suite 2020-1.
 49 51  0  0  1  0            999 V2000
   -0.7482    2.0845   -1.0985 C   0  0  0  0  0  0
   -1.1951    3.4115   -1.1644 C   0  0  0  0  0  0
   -1.4301    4.0884    0.0413 C   0  0  0  0  0  0
   -1.2115    3.4649    1.2697 C   0  0  0  0  0  0
   -0.7422    2.1539    1.3136 C   0  0  0  0  0  0
   -0.5009    1.4581    0.1274 C   0  0  0  0  0  0
    0.0584    0.0388    0.1640 C   0  0  0  0  0  0
    1.6086   -0.0101    0.0458 C   0  0  2  0  0  0
    2.1095    0.6214   -1.1811 N   0  0  0  0  0  0
    2.1112   -1.4650    0.0997 C   0  0  0  0  0  0
    1.8901   -2.2250   -0.8451 O   0  0  0  0  0  0
    2.7446   -1.8401    1.2234 N   0  0  0  0  0  0
    3.3203   -3.1655    1.4291 C   0  0  0  0  0  0
    4.4482   -3.4474    0.5230 C   0  0  0  0  0  0
    5.3338   -3.6686   -0.1880 N   0  0  0  0  0  0
    2.6165    1.8654   -1.2833 C   0  0  0  0  0  0
    2.7334    2.6299   -0.3230 O   0  0  0  0  0  0
    2.9774    2.3175   -2.6789 C   0  0  0  0  0  0
    2.9225    3.6811   -3.0003 C   0  0  0  0  0  0
    3.2380    4.1163   -4.2845 C   0  0  0  0  0  0
    3.6153    3.1912   -5.2538 C   0  0  0  0  0  0
    3.6813    1.8344   -4.9498 C   0  0  0  0  0  0
    3.3639    1.3974   -3.6665 C   0  0  0  0  0  0
   -1.3898    4.0862   -2.4818 C   0  0  0  0  0  0
   -1.8189    3.3793   -3.6169 C   0  0  0  0  0  0
   -1.9738    4.0329   -4.8404 C   0  0  0  0  0  0
   -1.6928    5.3966   -4.9039 C   0  0  0  0  0  0
   -1.2773    6.1120   -3.8299 N   0  0  0  0  0  0
   -1.1343    5.4563   -2.6499 C   0  0  0  0  0  0
   -0.5424    1.5409   -2.0093 H   0  0  0  0  0  0
   -1.7867    5.1080    0.0353 H   0  0  0  0  0  0
   -1.3962    4.0030    2.1878 H   0  0  0  0  0  0
   -0.5569    1.6857    2.2694 H   0  0  0  0  0  0
   -0.2779   -0.4475    1.0821 H   0  0  0  0  0  0
   -0.4157   -0.5349   -0.6353 H   0  0  0  0  0  0
    2.0139    0.5217    0.9103 H   0  0  0  0  0  0
    2.0480    0.0528   -2.0130 H   0  0  0  0  0  0
    2.9040   -1.1566    1.9496 H   0  0  0  0  0  0
    3.6863   -3.2376    2.4532 H   0  0  0  0  0  0
    2.5634   -3.9418    1.3041 H   0  0  0  0  0  0
    2.6258    4.4129   -2.2619 H   0  0  0  0  0  0
    3.1891    5.1674   -4.5279 H   0  0  0  0  0  0
    3.8602    3.5292   -6.2500 H   0  0  0  0  0  0
    3.9773    1.1231   -5.7068 H   0  0  0  0  0  0
    3.4261    0.3401   -3.4513 H   0  0  0  0  0  0
   -2.0394    2.3235   -3.5582 H   0  0  0  0  0  0
   -2.3039    3.4946   -5.7166 H   0  0  0  0  0  0
   -1.7997    5.9384   -5.8321 H   0  0  0  0  0  0
   -0.7866    6.0626   -1.8266 H   0  0  0  0  0  0
  1  6  2  0  0  0
  1  2  1  0  0  0
  1 30  1  0  0  0
  2  3  2  0  0  0
  2 24  1  0  0  0
  3  4  1  0  0  0
  3 31  1  0  0  0
  4  5  2  0  0  0
  4 32  1  0  0  0
  5  6  1  0  0  0
  5 33  1  0  0  0
  6  7  1  0  0  0
  7  8  1  0  0  0
  7 34  1  0  0  0
  7 35  1  0  0  0
  8  9  1  0  0  0
  8 10  1  0  0  0
  8 36  1  0  0  0
  9 16  1  0  0  0
  9 37  1  0  0  0
 10 11  2  0  0  0
 10 12  1  0  0  0
 12 13  1  0  0  0
 12 38  1  0  0  0
 13 14  1  0  0  0
 13 39  1  0  0  0
 13 40  1  0  0  0
 14 15  3  0  0  0
 16 17  2  0  0  0
 16 18  1  0  0  0
 18 19  2  0  0  0
 18 23  1  0  0  0
 19 20  1  0  0  0
 19 41  1  0  0  0
 20 21  2  0  0  0
 20 42  1  0  0  0
 21 22  1  0  0  0
 21 43  1  0  0  0
 22 23  2  0  0  0
 22 44  1  0  0  0
 23 45  1  0  0  0
 24 25  2  0  0  0
 24 29  1  0  0  0
 25 26  1  0  0  0
 25 46  1  0  0  0
 26 27  2  0  0  0
 26 47  1  0  0  0
 27 28  1  0  0  0
 27 48  1  0  0  0
 28 29  2  0  0  0
 29 49  1  0  0  0
M  END
> <chembl_id>
CHEMBL550059

> <chembl_pref_name>
None

> <i_m_ct_stereo_status>
1

> <s_m_source_file>
sdf/inactives_sanitized.sdf

> <i_m_source_file_index>
133

> <i_lp_mmshare_version>
49012

> <i_f3d_flags>
0

> <s_epik_input>
W2NIXTFuW2NIXVtjSF1bY0hdYzEtYzJbY0hdYyhbY0hdW2NIXVtjSF0yKVtDSDJdW0NAQEhdKEMoPU8pW05IXVtDSDJdQyNOKVtOSF1DKD1PKWMzW2NIXVtjSF1bY0hdW2NIXVtjSF0z

> <s_epik_cmdline>
J2VwaWtfcHl0aG9uJywgJy1waHQnLCAnMC41JywgJy1waCcsICc3LjUnLCAnLW50JywgJy1tYScsICcyMDAnLCAnLWltYWUnLCAnPGluZmlsZS5tYWU+JywgJy1vbWFlJywgJzxvdXRmaWxlLm1hZT4n

> <r_lp_tautomer_probability>
1

> <r_epik_Ionization_Penalty>
  0.0015

> <r_epik_Ionization_Penalty_Charging>
  0.0000

> <r_epik_Ionization_Penalty_Neutral>
  0.0015

> <r_epik_State_Penalty>
 -0.0000

> <r_epik_Charging_Adjusted_Penalty>
0

> <i_epik_Tot_Q>
0

> <i_epik_Tot_abs_Q>
0

> <s_lp_Force_Field>
OPLS3e

> <r_lp_Energy>
37.634917

> <b_lp_Chiralities_Consistent>
1

> <s_lp_Variant>
sdf/inactives_sanitized.sdf:133-1

$$$$
sdf/inactives_sanitized.sdf:134
                    3D
 Schrodinger Suite 2020-1.
 35 37  0  0  1  0            999 V2000
   -2.9912    2.2345    0.4699 C   0  0  0  0  0  0
   -2.0453    1.1491   -0.1450 C   0  0  0  0  0  0
   -0.5273    1.4070    0.0986 C   0  0  1  0  0  0
   -0.2605    2.1788    1.4355 C   0  0  1  0  0  0
   -2.3904    2.7287    1.7236 N   0  0  0  0  0  0
   -1.1305    3.4163    1.5111 C   0  0  0  0  0  0
   -2.1223    1.8328    2.7548 C   0  0  0  0  0  0
   -0.8106    1.4966    2.5650 O   0  0  0  0  0  0
   -2.8492    1.3333    3.6110 O   0  0  0  0  0  0
    0.1805    0.1639    0.1012 O   0  0  0  0  0  0
    1.5575    0.1080   -0.0560 C   0  0  0  0  0  0
    2.3594    1.2330   -0.3132 C   0  0  0  0  0  0
    3.7358    1.1052   -0.4670 C   0  0  0  0  0  0
    4.3335   -0.1459   -0.3677 C   0  0  0  0  0  0
    3.5622   -1.2829   -0.1147 C   0  0  0  0  0  0
    2.1666   -1.1572    0.0416 C   0  0  0  0  0  0
    1.2818   -2.3733    0.3171 C   0  0  0  0  0  0
    4.2702   -2.6281   -0.0131 C   0  0  0  0  0  0
   -3.9827    1.8325    0.6824 H   0  0  0  0  0  0
   -3.1015    3.0886   -0.1995 H   0  0  0  0  0  0
   -2.3125    0.1879    0.2977 H   0  0  0  0  0  0
   -2.2614    1.0659   -1.2106 H   0  0  0  0  0  0
   -0.1706    1.9732   -0.7630 H   0  0  0  0  0  0
    0.7943    2.4070    1.5853 H   0  0  0  0  0  0
   -0.8662    4.0593    2.3544 H   0  0  0  0  0  0
   -1.1126    4.0139    0.5985 H   0  0  0  0  0  0
    1.9379    2.2221   -0.3993 H   0  0  0  0  0  0
    4.3405    1.9779   -0.6645 H   0  0  0  0  0  0
    5.4041   -0.2266   -0.4896 H   0  0  0  0  0  0
    1.8055   -3.3270    0.2877 H   0  0  0  0  0  0
    0.4825   -2.4246   -0.4232 H   0  0  0  0  0  0
    0.8077   -2.2745    1.2943 H   0  0  0  0  0  0
    3.9136   -3.3043   -0.7906 H   0  0  0  0  0  0
    4.0660   -3.0922    0.9523 H   0  0  0  0  0  0
    5.3525   -2.5367   -0.1140 H   0  0  0  0  0  0
  1  5  1  0  0  0
  1  2  1  0  0  0
  1 19  1  0  0  0
  1 20  1  0  0  0
  2  3  1  0  0  0
  2 21  1  0  0  0
  2 22  1  0  0  0
  3 10  1  0  0  0
  3  4  1  0  0  0
  3 23  1  0  0  0
  4  6  1  0  0  0
  4  8  1  0  0  0
  4 24  1  0  0  0
  5  6  1  0  0  0
  5  7  1  0  0  0
  6 25  1  0  0  0
  6 26  1  0  0  0
  7  9  2  0  0  0
  7  8  1  0  0  0
 10 11  1  0  0  0
 11 12  2  0  0  0
 11 16  1  0  0  0
 12 13  1  0  0  0
 12 27  1  0  0  0
 13 14  2  0  0  0
 13 28  1  0  0  0
 14 15  1  0  0  0
 14 29  1  0  0  0
 15 16  2  0  0  0
 15 18  1  0  0  0
 16 17  1  0  0  0
 17 30  1  0  0  0
 17 31  1  0  0  0
 17 32  1  0  0  0
 18 33  1  0  0  0
 18 34  1  0  0  0
 18 35  1  0  0  0
M  END
> <chembl_id>
CHEMBL390474

> <chembl_pref_name>
None

> <i_m_ct_stereo_status>
1

> <s_m_source_file>
sdf/inactives_sanitized.sdf

> <i_m_source_file_index>
134

> <i_lp_mmshare_version>
49012

> <i_f3d_flags>
0

> <s_epik_input>
TzFDKD1PKU4oW0NIMl0yKVtDSDJdW0NIMl1bQ0BASF0oW0NIXTEyKU9jM1tjSF1bY0hdW2NIXWMoW0NIM10pYzNbQ0gzXQ==

> <s_epik_cmdline>
J2VwaWtfcHl0aG9uJywgJy1waHQnLCAnMC41JywgJy1waCcsICc3LjUnLCAnLW50JywgJy1tYScsICcyMDAnLCAnLWltYWUnLCAnPGluZmlsZS5tYWU+JywgJy1vbWFlJywgJzxvdXRmaWxlLm1hZT4n

> <r_lp_tautomer_probability>
1

> <r_epik_Ionization_Penalty>
  0.0000

> <r_epik_Ionization_Penalty_Charging>
  0.0000

> <r_epik_Ionization_Penalty_Neutral>
  0.0000

> <r_epik_State_Penalty>
 -0.0000

> <r_epik_Charging_Adjusted_Penalty>
0

> <i_epik_Tot_Q>
0

> <i_epik_Tot_abs_Q>
0

> <s_epik_Chemistry_Notes>
This compound has an ester and may undergo hydrolysis at high or low pH.

> <s_lp_Force_Field>
OPLS3e

> <r_lp_Energy>
34.530563

> <b_lp_Chiralities_Consistent>
1

> <s_lp_Variant>
sdf/inactives_sanitized.sdf:134-1

$$$$
sdf/inactives_sanitized.sdf:135
                    3D
 Schrodinger Suite 2020-1.
 68 72  0  0  1  0            999 V2000
   -4.0165    5.5411   -1.5349 C   0  0  0  0  0  0
   -2.9873    4.5914   -1.7775 O   0  0  0  0  0  0
   -1.9615    4.5561   -0.7902 C   0  0  0  0  0  0
   -2.3917    3.8569    0.5174 C   0  0  0  0  0  0
   -2.8308    2.4701    0.3127 N   0  0  0  0  0  0
   -4.1430    2.1251    0.2572 C   0  0  0  0  0  0
   -5.1308    2.8481    0.3885 O   0  0  0  0  0  0
   -4.1939    0.6192   -0.0055 C   0  0  0  0  0  0
   -2.7523    0.2377   -0.0796 C   0  0  0  0  0  0
   -2.1336   -0.9908   -0.3003 C   0  0  0  0  0  0
   -0.7390   -1.0613   -0.3217 C   0  0  0  0  0  0
    0.0526    0.0832   -0.1199 C   0  0  0  0  0  0
   -0.5972    1.3090    0.1020 C   0  0  0  0  0  0
   -1.9924    1.3722    0.1154 C   0  0  0  0  0  0
    1.5439   -0.0018   -0.1409 C   0  0  0  0  0  0
    2.2051   -0.8928   -0.9992 C   0  0  0  0  0  0
    3.5969   -0.9740   -1.0200 C   0  0  0  0  0  0
    4.3624   -0.1669   -0.1765 C   0  0  0  0  0  0
    5.8831   -0.2882   -0.1863 C   0  0  0  0  0  0
    6.4176   -1.4439    0.6876 C   0  0  2  0  0  0
    5.9818   -1.3439    2.0839 N   0  0  0  0  0  0
    5.1188   -2.1752    2.6979 C   0  0  0  0  0  0
    4.6345   -3.1570    2.1286 O   0  0  0  0  0  0
    4.7503   -1.8107    4.1626 C   0  0  2  0  0  0
    3.9611   -0.4739    4.2636 C   0  0  0  0  0  0
    3.5298   -0.2117    5.7350 C   0  0  0  0  0  0
    3.9757   -1.3685    6.6748 C   0  0  2  0  0  0
    5.5212   -1.5208    6.5786 C   0  0  0  0  0  0
    5.9780   -1.8047    5.1183 C   0  0  0  0  0  0
    3.3413   -2.6816    6.1331 C   0  0  0  0  0  0
    3.7962   -2.9256    4.6711 N   0  3  0  0  0  0
    7.8850   -1.5442    0.6311 C   0  0  0  0  0  0
    9.0386   -1.6227    0.5875 N   0  0  0  0  0  0
    3.7178    0.7267    0.6852 C   0  0  0  0  0  0
    4.4346    1.5130    1.5213 F   0  0  0  0  0  0
    2.3254    0.8061    0.6983 C   0  0  0  0  0  0
   -4.7374    5.5081   -2.3516 H   0  0  0  0  0  0
   -3.6159    6.5546   -1.4858 H   0  0  0  0  0  0
   -4.5568    5.3357   -0.6112 H   0  0  0  0  0  0
   -1.1228    4.0094   -1.2220 H   0  0  0  0  0  0
   -1.5834    5.5591   -0.5859 H   0  0  0  0  0  0
   -1.5890    3.8955    1.2541 H   0  0  0  0  0  0
   -3.2317    4.4059    0.9447 H   0  0  0  0  0  0
   -4.7097    0.1169    0.8134 H   0  0  0  0  0  0
   -4.7184    0.4239   -0.9413 H   0  0  0  0  0  0
   -2.7158   -1.8875   -0.4538 H   0  0  0  0  0  0
   -0.2765   -2.0235   -0.4861 H   0  0  0  0  0  0
   -0.0169    2.2079    0.2497 H   0  0  0  0  0  0
    1.6420   -1.5266   -1.6686 H   0  0  0  0  0  0
    4.0782   -1.6721   -1.6897 H   0  0  0  0  0  0
    6.2168   -0.4291   -1.2159 H   0  0  0  0  0  0
    6.3285    0.6589    0.1230 H   0  0  0  0  0  0
    6.0706   -2.3783    0.2416 H   0  0  0  0  0  0
    6.2716   -0.5107    2.5751 H   0  0  0  0  0  0
    4.5749    0.3580    3.9139 H   0  0  0  0  0  0
    3.0818   -0.4919    3.6162 H   0  0  0  0  0  0
    3.9549    0.7307    6.0842 H   0  0  0  0  0  0
    2.4476   -0.0826    5.7896 H   0  0  0  0  0  0
    3.6641   -1.1798    7.7032 H   0  0  0  0  0  0
    6.0030   -0.6139    6.9477 H   0  0  0  0  0  0
    5.8599   -2.3210    7.2386 H   0  0  0  0  0  0
    6.6996   -1.0457    4.8104 H   0  0  0  0  0  0
    6.5080   -2.7585    5.0741 H   0  0  0  0  0  0
    3.6522   -3.5655    6.6918 H   0  0  0  0  0  0
    2.2514   -2.6457    6.1016 H   0  0  0  0  0  0
    4.2651   -3.8186    4.6130 H   0  0  0  0  0  0
    1.8553    1.4970    1.3826 H   0  0  0  0  0  0
    2.9833   -2.9660    4.0726 H   0  0  0  0  0  0
  1  2  1  0  0  0
  1 37  1  0  0  0
  1 38  1  0  0  0
  1 39  1  0  0  0
  2  3  1  0  0  0
  3  4  1  0  0  0
  3 40  1  0  0  0
  3 41  1  0  0  0
  4  5  1  0  0  0
  4 42  1  0  0  0
  4 43  1  0  0  0
  5  6  1  0  0  0
  5 14  1  0  0  0
  6  7  2  0  0  0
  6  8  1  0  0  0
  8  9  1  0  0  0
  8 44  1  0  0  0
  8 45  1  0  0  0
  9 10  2  0  0  0
  9 14  1  0  0  0
 10 11  1  0  0  0
 10 46  1  0  0  0
 11 12  2  0  0  0
 11 47  1  0  0  0
 12 13  1  0  0  0
 12 15  1  0  0  0
 13 14  2  0  0  0
 13 48  1  0  0  0
 15 16  2  0  0  0
 15 36  1  0  0  0
 16 17  1  0  0  0
 16 49  1  0  0  0
 17 18  2  0  0  0
 17 50  1  0  0  0
 18 19  1  0  0  0
 18 34  1  0  0  0
 19 20  1  0  0  0
 19 51  1  0  0  0
 19 52  1  0  0  0
 20 21  1  0  0  0
 20 32  1  0  0  0
 20 53  1  0  0  0
 21 22  1  0  0  0
 21 54  1  0  0  0
 22 23  2  0  0  0
 22 24  1  0  0  0
 24 25  1  0  0  0
 24 29  1  0  0  0
 24 31  1  0  0  0
 25 26  1  0  0  0
 25 55  1  0  0  0
 25 56  1  0  0  0
 26 27  1  0  0  0
 26 57  1  0  0  0
 26 58  1  0  0  0
 27 28  1  0  0  0
 27 30  1  0  0  0
 27 59  1  0  0  0
 28 29  1  0  0  0
 28 60  1  0  0  0
 28 61  1  0  0  0
 29 62  1  0  0  0
 29 63  1  0  0  0
 30 31  1  0  0  0
 30 64  1  0  0  0
 30 65  1  0  0  0
 31 66  1  0  0  0
 31 68  1  0  0  0
 32 33  3  0  0  0
 34 35  1  0  0  0
 34 36  2  0  0  0
 36 67  1  0  0  0
M  CHG  1  31   1
M  END
> <chembl_id>
CHEMBL3702590

> <chembl_pref_name>
None

> <i_m_ct_stereo_status>
1

> <s_m_source_file>
sdf/inactives_sanitized.sdf

> <i_m_source_file_index>
135

> <i_lp_mmshare_version>
49012

> <i_f3d_flags>
0

> <s_epik_input>
W0NIM11PW0NIMl1bQ0gyXU4oQyg9TylbQ0gyXTEpYyhjMTIpW2NIXWMoW2NIXVtjSF0yKS1jM1tjSF1bY0hdYyhjKEYpW2NIXTMpW0NIMl1bQ0BASF0oQyNOKVtOSF1DKD1PKVtDQF00NVtDSDJdW0NIMl1bQ0BIXShbQ0gyXVtDSDJdNClbQ0gyXVtOSF01

> <s_epik_cmdline>
J2VwaWtfcHl0aG9uJywgJy1waHQnLCAnMC41JywgJy1waCcsICc3LjUnLCAnLW50JywgJy1tYScsICcyMDAnLCAnLWltYWUnLCAnPGluZmlsZS5tYWU+JywgJy1vbWFlJywgJzxvdXRmaWxlLm1hZT4n

> <r_epik_Ionization_Penalty>
  0.2492

> <r_epik_Ionization_Penalty_Charging>
  0.2491

> <r_epik_Ionization_Penalty_Neutral>
  0.0001

> <r_epik_State_Penalty>
  0.2404

> <r_epik_Charging_Adjusted_Penalty>
0.489493738808436

> <i_epik_Tot_Q>
1

> <i_epik_Tot_abs_Q>
1

> <s_lp_Force_Field>
OPLS3e

> <r_lp_Energy>
49.226779

> <b_lp_Chiralities_Consistent>
1

> <s_lp_Variant>
sdf/inactives_sanitized.sdf:135-1

$$$$
sdf/inactives_sanitized.sdf:135
                    3D
 Schrodinger Suite 2020-1.
 67 71  0  0  1  0            999 V2000
   -3.4060    4.1098    3.9181 C   0  0  0  0  0  0
   -3.6304    3.7345    2.5684 O   0  0  0  0  0  0
   -2.5077    3.9535    1.7247 C   0  0  0  0  0  0
   -2.8365    3.5150    0.2872 C   0  0  0  0  0  0
   -3.1539    2.0855    0.1744 N   0  0  0  0  0  0
   -4.4322    1.6288    0.1374 C   0  0  0  0  0  0
   -5.4775    2.2788    0.1658 O   0  0  0  0  0  0
   -4.3540    0.1035    0.0509 C   0  0  0  0  0  0
   -2.8846   -0.1628    0.0580 C   0  0  0  0  0  0
   -2.1623   -1.3527    0.0042 C   0  0  0  0  0  0
   -0.7665   -1.3083    0.0265 C   0  0  0  0  0  0
   -0.0757   -0.0857    0.1016 C   0  0  0  0  0  0
   -0.8294    1.0991    0.1546 C   0  0  0  0  0  0
   -2.2248    1.0459    0.1341 C   0  0  0  0  0  0
    1.4184   -0.0458    0.1217 C   0  0  0  0  0  0
    2.1766   -0.9917   -0.5843 C   0  0  0  0  0  0
    3.5703   -0.9507   -0.5741 C   0  0  0  0  0  0
    4.2413    0.0410    0.1451 C   0  0  0  0  0  0
    5.7662    0.0987    0.1290 C   0  0  0  0  0  0
    6.3354    1.2543   -0.7224 C   0  0  2  0  0  0
    5.8248    1.2143   -2.0972 N   0  0  0  0  0  0
    6.1922    2.0062   -3.1253 C   0  0  0  0  0  0
    7.0712    2.8613   -3.0053 O   0  0  0  0  0  0
    5.4843    1.8294   -4.5033 C   0  0  2  0  0  0
    6.4453    1.0893   -5.4866 C   0  0  0  0  0  0
    5.7607    0.8967   -6.8693 C   0  0  0  0  0  0
    4.3213    1.4785   -6.8465 C   0  0  2  0  0  0
    4.3889    2.9923   -6.4990 C   0  0  0  0  0  0
    5.0841    3.2062   -5.1232 C   0  0  0  0  0  0
    3.5841    0.7776   -5.6663 C   0  0  0  0  0  0
    4.2443    1.0270   -4.3683 N   0  0  2  0  0  0
    7.8105    1.2820   -0.6563 C   0  0  0  0  0  0
    8.9665    1.3024   -0.6030 N   0  0  0  0  0  0
    3.5003    0.9873    0.8588 C   0  0  0  0  0  0
    4.1259    1.9559    1.5669 F   0  0  0  0  0  0
    2.1063    0.9411    0.8440 C   0  0  0  0  0  0
   -4.3042    3.9140    4.5035 H   0  0  0  0  0  0
   -3.1772    5.1733    4.0028 H   0  0  0  0  0  0
   -2.5880    3.5388    4.3599 H   0  0  0  0  0  0
   -2.2312    5.0093    1.7257 H   0  0  0  0  0  0
   -1.6451    3.3943    2.0923 H   0  0  0  0  0  0
   -3.7171    4.0715   -0.0382 H   0  0  0  0  0  0
   -2.0306    3.7873   -0.3948 H   0  0  0  0  0  0
   -4.8564   -0.3426    0.9098 H   0  0  0  0  0  0
   -4.8288   -0.2405   -0.8684 H   0  0  0  0  0  0
   -2.6655   -2.3068   -0.0519 H   0  0  0  0  0  0
   -0.2239   -2.2416   -0.0044 H   0  0  0  0  0  0
   -0.3298    2.0554    0.2015 H   0  0  0  0  0  0
    1.6890   -1.7624   -1.1632 H   0  0  0  0  0  0
    4.1253   -1.6874   -1.1368 H   0  0  0  0  0  0
    6.1267    0.1764    1.1561 H   0  0  0  0  0  0
    6.1602   -0.8499   -0.2408 H   0  0  0  0  0  0
    6.0040    2.1981   -0.2863 H   0  0  0  0  0  0
    5.0121    0.6320   -2.2398 H   0  0  0  0  0  0
    7.3730    1.6505   -5.6152 H   0  0  0  0  0  0
    6.7364    0.1167   -5.0842 H   0  0  0  0  0  0
    6.3467    1.3850   -7.6495 H   0  0  0  0  0  0
    5.7347   -0.1616   -7.1333 H   0  0  0  0  0  0
    3.8073    1.3078   -7.7930 H   0  0  0  0  0  0
    4.9276    3.5304   -7.2802 H   0  0  0  0  0  0
    3.3841    3.4172   -6.4823 H   0  0  0  0  0  0
    5.9635    3.8388   -5.2589 H   0  0  0  0  0  0
    4.4194    3.7552   -4.4532 H   0  0  0  0  0  0
    2.5533    1.1287   -5.6042 H   0  0  0  0  0  0
    3.5354   -0.2989   -5.8335 H   0  0  0  0  0  0
    3.5941    1.5510   -3.8000 H   0  0  0  0  0  0
    1.5616    1.6819    1.4108 H   0  0  0  0  0  0
  1  2  1  0  0  0
  1 37  1  0  0  0
  1 38  1  0  0  0
  1 39  1  0  0  0
  2  3  1  0  0  0
  3  4  1  0  0  0
  3 40  1  0  0  0
  3 41  1  0  0  0
  4  5  1  0  0  0
  4 42  1  0  0  0
  4 43  1  0  0  0
  5  6  1  0  0  0
  5 14  1  0  0  0
  6  7  2  0  0  0
  6  8  1  0  0  0
  8  9  1  0  0  0
  8 44  1  0  0  0
  8 45  1  0  0  0
  9 10  2  0  0  0
  9 14  1  0  0  0
 10 11  1  0  0  0
 10 46  1  0  0  0
 11 12  2  0  0  0
 11 47  1  0  0  0
 12 13  1  0  0  0
 12 15  1  0  0  0
 13 14  2  0  0  0
 13 48  1  0  0  0
 15 16  2  0  0  0
 15 36  1  0  0  0
 16 17  1  0  0  0
 16 49  1  0  0  0
 17 18  2  0  0  0
 17 50  1  0  0  0
 18 19  1  0  0  0
 18 34  1  0  0  0
 19 20  1  0  0  0
 19 51  1  0  0  0
 19 52  1  0  0  0
 20 21  1  0  0  0
 20 32  1  0  0  0
 20 53  1  0  0  0
 21 22  1  0  0  0
 21 54  1  0  0  0
 22 23  2  0  0  0
 22 24  1  0  0  0
 24 25  1  0  0  0
 24 29  1  0  0  0
 24 31  1  0  0  0
 25 26  1  0  0  0
 25 55  1  0  0  0
 25 56  1  0  0  0
 26 27  1  0  0  0
 26 57  1  0  0  0
 26 58  1  0  0  0
 27 28  1  0  0  0
 27 30  1  0  0  0
 27 59  1  0  0  0
 28 29  1  0  0  0
 28 60  1  0  0  0
 28 61  1  0  0  0
 29 62  1  0  0  0
 29 63  1  0  0  0
 30 31  1  0  0  0
 30 64  1  0  0  0
 30 65  1  0  0  0
 31 66  1  0  0  0
 32 33  3  0  0  0
 34 35  1  0  0  0
 34 36  2  0  0  0
 36 67  1  0  0  0
M  END
> <chembl_id>
CHEMBL3702590

> <chembl_pref_name>
None

> <i_m_ct_stereo_status>
1

> <s_m_source_file>
sdf/inactives_sanitized.sdf

> <i_m_source_file_index>
135

> <i_lp_mmshare_version>
49012

> <i_f3d_flags>
0

> <s_epik_input>
W0NIM11PW0NIMl1bQ0gyXU4oQyg9TylbQ0gyXTEpYyhjMTIpW2NIXWMoW2NIXVtjSF0yKS1jM1tjSF1bY0hdYyhjKEYpW2NIXTMpW0NIMl1bQ0BASF0oQyNOKVtOSF1DKD1PKVtDQF00NVtDSDJdW0NIMl1bQ0BIXShbQ0gyXVtDSDJdNClbQ0gyXVtOSF01

> <s_epik_cmdline>
J2VwaWtfcHl0aG9uJywgJy1waHQnLCAnMC41JywgJy1waCcsICc3LjUnLCAnLW50JywgJy1tYScsICcyMDAnLCAnLWltYWUnLCAnPGluZmlsZS5tYWU+JywgJy1vbWFlJywgJzxvdXRmaWxlLm1hZT4n

> <r_epik_Ionization_Penalty>
  0.6336

> <r_epik_Ionization_Penalty_Charging>
  0.0000

> <r_epik_Ionization_Penalty_Neutral>
  0.6336

> <r_epik_State_Penalty>
  0.6506

> <r_epik_Charging_Adjusted_Penalty>
0.650608926039391

> <i_epik_Tot_Q>
0

> <i_epik_Tot_abs_Q>
0

> <s_lp_Force_Field>
OPLS3e

> <r_lp_Energy>
45.69066

> <b_lp_Chiralities_Consistent>
1

> <s_lp_Variant>
sdf/inactives_sanitized.sdf:135-2

$$$$
sdf/inactives_sanitized.sdf:136
                    3D
 Schrodinger Suite 2020-1.
 50 53  0  0  1  0            999 V2000
   -3.2348    1.8795   -0.1962 N   0  0  0  0  0  0
   -4.4281    1.2497   -0.0232 C   0  0  0  0  0  0
   -4.6462   -0.0535    0.2894 N   0  0  0  0  0  0
   -3.5443   -0.8315    0.4489 C   0  0  0  0  0  0
   -2.1728    1.0750   -0.0222 C   0  0  0  0  0  0
   -2.2509   -0.3044    0.2980 C   0  0  0  0  0  0
   -0.9137   -0.7849    0.3715 C   0  0  0  0  0  0
   -0.0581    0.2794    0.1217 C   0  0  0  0  0  0
   -0.8293    1.4144   -0.1294 N   0  0  0  0  0  0
   -5.6134    2.0723   -0.1960 C   0  0  0  0  0  0
   -6.5576    2.7277   -0.3339 N   0  0  0  0  0  0
    1.4661    0.2720    0.1132 C   0  0  0  0  0  0
    1.9852    0.7639    1.3543 O   0  0  0  0  0  0
    1.9670   -0.0332    2.4896 C   0  0  0  0  0  0
   -0.3518    2.7530   -0.5049 C   0  0  0  0  0  0
   -0.5534    3.7980    0.6186 C   0  0  0  0  0  0
    0.5145    3.7848    1.7377 C   0  0  0  0  0  0
    0.0526    4.5996    2.9673 C   0  0  0  0  0  0
    1.0852    4.5238    4.1095 C   0  0  0  0  0  0
    2.4744    5.0125    3.6462 C   0  0  0  0  0  0
    2.9485    4.3206    2.3493 C   0  0  0  0  0  0
    1.8700    4.3576    1.2490 C   0  0  0  0  0  0
    2.3446    0.5299    3.7124 C   0  0  0  0  0  0
    2.3312   -0.2663    4.8592 C   0  0  0  0  0  0
    1.9431   -1.6033    4.7638 C   0  0  0  0  0  0
    1.5798   -2.1013    3.5125 C   0  0  0  0  0  0
    1.5890   -1.3417    2.3879 N   0  0  0  0  0  0
   -3.7070   -1.8711    0.6926 H   0  0  0  0  0  0
   -0.5931   -1.7923    0.5934 H   0  0  0  0  0  0
    1.8597    0.9010   -0.6835 H   0  0  0  0  0  0
    1.8738   -0.7151   -0.1109 H   0  0  0  0  0  0
    0.6858    2.7094   -0.8257 H   0  0  0  0  0  0
   -0.9076    3.0585   -1.3928 H   0  0  0  0  0  0
   -0.5717    4.7909    0.1665 H   0  0  0  0  0  0
   -1.5460    3.6761    1.0540 H   0  0  0  0  0  0
    0.6651    2.7598    2.0750 H   0  0  0  0  0  0
   -0.1334    5.6373    2.6840 H   0  0  0  0  0  0
   -0.9127    4.2303    3.3165 H   0  0  0  0  0  0
    0.7463    5.1193    4.9582 H   0  0  0  0  0  0
    1.1585    3.4960    4.4680 H   0  0  0  0  0  0
    2.4334    6.0901    3.4795 H   0  0  0  0  0  0
    3.2066    4.8578    4.4395 H   0  0  0  0  0  0
    3.8606    4.7981    1.9892 H   0  0  0  0  0  0
    3.2177    3.2862    2.5562 H   0  0  0  0  0  0
    2.2239    3.8135    0.3737 H   0  0  0  0  0  0
    1.7317    5.3818    0.8979 H   0  0  0  0  0  0
    2.6404    1.5643    3.7796 H   0  0  0  0  0  0
    2.6193    0.1502    5.8132 H   0  0  0  0  0  0
    1.9250   -2.2373    5.6381 H   0  0  0  0  0  0
    1.2733   -3.1306    3.3963 H   0  0  0  0  0  0
  1  2  2  0  0  0
  1  5  1  0  0  0
  2  3  1  0  0  0
  2 10  1  0  0  0
  3  4  2  0  0  0
  4  6  1  0  0  0
  4 28  1  0  0  0
  5  9  1  0  0  0
  5  6  2  0  0  0
  6  7  1  0  0  0
  7  8  2  0  0  0
  7 29  1  0  0  0
  8  9  1  0  0  0
  8 12  1  0  0  0
  9 15  1  0  0  0
 10 11  3  0  0  0
 12 13  1  0  0  0
 12 30  1  0  0  0
 12 31  1  0  0  0
 13 14  1  0  0  0
 14 23  2  0  0  0
 14 27  1  0  0  0
 15 16  1  0  0  0
 15 32  1  0  0  0
 15 33  1  0  0  0
 16 17  1  0  0  0
 16 34  1  0  0  0
 16 35  1  0  0  0
 17 18  1  0  0  0
 17 22  1  0  0  0
 17 36  1  0  0  0
 18 19  1  0  0  0
 18 37  1  0  0  0
 18 38  1  0  0  0
 19 20  1  0  0  0
 19 39  1  0  0  0
 19 40  1  0  0  0
 20 21  1  0  0  0
 20 41  1  0  0  0
 20 42  1  0  0  0
 21 22  1  0  0  0
 21 43  1  0  0  0
 21 44  1  0  0  0
 22 45  1  0  0  0
 22 46  1  0  0  0
 23 24  1  0  0  0
 23 47  1  0  0  0
 24 25  2  0  0  0
 24 48  1  0  0  0
 25 26  1  0  0  0
 25 49  1  0  0  0
 26 27  2  0  0  0
 26 50  1  0  0  0
M  END
> <chembl_id>
CHEMBL524016

> <chembl_pref_name>
None

> <s_m_source_file>
sdf/inactives_sanitized.sdf

> <i_m_source_file_index>
136

> <i_lp_mmshare_version>
49012

> <i_m_ct_stereo_status>
1

> <i_f3d_flags>
0

> <s_epik_input>
bjFbY0hdW2NIXVtjSF1bY0hdYzFPW0NIMl1jKFtjSF1jKGMyMylbY0hdbmMobjIpQyNOKW4zW0NIMl1bQ0gyXVtDSF00W0NIMl1bQ0gyXVtDSDJdW0NIMl1bQ0gyXTQ=

> <s_epik_cmdline>
J2VwaWtfcHl0aG9uJywgJy1waHQnLCAnMC41JywgJy1waCcsICc3LjUnLCAnLW50JywgJy1tYScsICcyMDAnLCAnLWltYWUnLCAnPGluZmlsZS5tYWU+JywgJy1vbWFlJywgJzxvdXRmaWxlLm1hZT4n

> <r_lp_tautomer_probability>
1

> <r_epik_Ionization_Penalty>
  0.0000

> <r_epik_Ionization_Penalty_Charging>
  0.0000

> <r_epik_Ionization_Penalty_Neutral>
  0.0000

> <r_epik_State_Penalty>
 -0.0000

> <r_epik_Charging_Adjusted_Penalty>
0

> <i_epik_Tot_Q>
0

> <i_epik_Tot_abs_Q>
0

> <s_lp_Force_Field>
OPLS3e

> <r_lp_Energy>
36.452333

> <b_lp_Chiralities_Consistent>
1

> <s_lp_Variant>
sdf/inactives_sanitized.sdf:136-1

$$$$
sdf/inactives_sanitized.sdf:137
                    3D
 Schrodinger Suite 2020-1.
 51 54  0  0  1  0            999 V2000
   -3.3808    0.8746    0.2996 N   0  0  0  0  0  0
   -4.5259    0.1567    0.1437 C   0  0  0  0  0  0
   -4.6578   -1.1176   -0.3074 N   0  0  0  0  0  0
   -3.5123   -1.7646   -0.6456 C   0  0  0  0  0  0
   -2.2752    0.1963   -0.0471 C   0  0  0  0  0  0
   -2.2597   -1.1390   -0.5304 C   0  0  0  0  0  0
   -0.8952   -1.4792   -0.7685 C   0  0  0  0  0  0
   -0.1215   -0.3785   -0.4308 C   0  0  0  0  0  0
   -0.9634    0.6452   -0.0066 N   0  0  0  0  0  0
   -5.7582    0.8375    0.5036 C   0  0  0  0  0  0
   -6.7397    1.3802    0.7904 N   0  0  0  0  0  0
    1.3858   -0.2115   -0.4768 C   0  0  0  0  0  0
    1.8693   -0.0840    0.8585 O   0  0  0  0  0  0
    3.0764    0.5415    1.0983 C   0  0  0  0  0  0
   -0.5422    1.9651    0.4712 C   0  0  0  0  0  0
   -0.4478    1.9859    2.0123 C   0  0  0  0  0  0
    0.3091    3.2085    2.5801 C   0  0  0  0  0  0
    0.5125    3.0798    4.1075 C   0  0  0  0  0  0
    1.3615    4.2422    4.6602 C   0  0  0  0  0  0
    0.7393    5.6118    4.3113 C   0  0  0  0  0  0
    0.4173    5.7478    2.8068 C   0  0  0  0  0  0
   -0.4066    4.5502    2.2904 C   0  0  0  0  0  0
    3.3499    0.8702    2.4273 C   0  0  0  0  0  0
    4.5369    1.5128    2.7673 C   0  0  0  0  0  0
    5.4619    1.8201    1.7731 C   0  0  0  0  0  0
    5.2105    1.4868    0.4445 C   0  0  0  0  0  0
    4.0212    0.8465    0.1052 C   0  0  0  0  0  0
   -3.6074   -2.7795   -1.0023 H   0  0  0  0  0  0
   -0.5069   -2.4183   -1.1348 H   0  0  0  0  0  0
    1.6493    0.6403   -1.1054 H   0  0  0  0  0  0
    1.8490   -1.0920   -0.9241 H   0  0  0  0  0  0
    0.4190    2.2176    0.0240 H   0  0  0  0  0  0
   -1.2475    2.7134    0.1076 H   0  0  0  0  0  0
   -1.4507    1.9379    2.4401 H   0  0  0  0  0  0
    0.0613    1.0823    2.3514 H   0  0  0  0  0  0
    1.2988    3.2461    2.1195 H   0  0  0  0  0  0
   -0.4523    3.0256    4.6150 H   0  0  0  0  0  0
    0.9999    2.1317    4.3381 H   0  0  0  0  0  0
    1.4668    4.1458    5.7414 H   0  0  0  0  0  0
    2.3706    4.1839    4.2488 H   0  0  0  0  0  0
   -0.1789    5.7430    4.8862 H   0  0  0  0  0  0
    1.4084    6.4148    4.6227 H   0  0  0  0  0  0
   -0.1226    6.6778    2.6248 H   0  0  0  0  0  0
    1.3475    5.8193    2.2412 H   0  0  0  0  0  0
   -0.5801    4.6647    1.2203 H   0  0  0  0  0  0
   -1.4040    4.5461    2.7337 H   0  0  0  0  0  0
    2.6326    0.6331    3.1994 H   0  0  0  0  0  0
    4.7388    1.7709    3.7964 H   0  0  0  0  0  0
    6.3842    2.3174    2.0355 H   0  0  0  0  0  0
    5.9365    1.7221   -0.3199 H   0  0  0  0  0  0
    3.8546    0.5872   -0.9291 H   0  0  0  0  0  0
  1  2  2  0  0  0
  1  5  1  0  0  0
  2  3  1  0  0  0
  2 10  1  0  0  0
  3  4  2  0  0  0
  4  6  1  0  0  0
  4 28  1  0  0  0
  5  9  1  0  0  0
  5  6  2  0  0  0
  6  7  1  0  0  0
  7  8  2  0  0  0
  7 29  1  0  0  0
  8  9  1  0  0  0
  8 12  1  0  0  0
  9 15  1  0  0  0
 10 11  3  0  0  0
 12 13  1  0  0  0
 12 30  1  0  0  0
 12 31  1  0  0  0
 13 14  1  0  0  0
 14 23  2  0  0  0
 14 27  1  0  0  0
 15 16  1  0  0  0
 15 32  1  0  0  0
 15 33  1  0  0  0
 16 17  1  0  0  0
 16 34  1  0  0  0
 16 35  1  0  0  0
 17 18  1  0  0  0
 17 22  1  0  0  0
 17 36  1  0  0  0
 18 19  1  0  0  0
 18 37  1  0  0  0
 18 38  1  0  0  0
 19 20  1  0  0  0
 19 39  1  0  0  0
 19 40  1  0  0  0
 20 21  1  0  0  0
 20 41  1  0  0  0
 20 42  1  0  0  0
 21 22  1  0  0  0
 21 43  1  0  0  0
 21 44  1  0  0  0
 22 45  1  0  0  0
 22 46  1  0  0  0
 23 24  1  0  0  0
 23 47  1  0  0  0
 24 25  2  0  0  0
 24 48  1  0  0  0
 25 26  1  0  0  0
 25 49  1  0  0  0
 26 27  2  0  0  0
 26 50  1  0  0  0
 27 51  1  0  0  0
M  END
> <chembl_id>
CHEMBL493245

> <chembl_pref_name>
None

> <s_m_source_file>
sdf/inactives_sanitized.sdf

> <i_m_source_file_index>
137

> <i_lp_mmshare_version>
49012

> <i_m_ct_stereo_status>
1

> <i_f3d_flags>
0

> <s_epik_input>
W2NIXTFbY0hdW2NIXVtjSF1bY0hdYzFPW0NIMl1jKFtjSF1jKGMyMylbY0hdbmMobjIpQyNOKW4zW0NIMl1bQ0gyXVtDSF00W0NIMl1bQ0gyXVtDSDJdW0NIMl1bQ0gyXTQ=

> <s_epik_cmdline>
J2VwaWtfcHl0aG9uJywgJy1waHQnLCAnMC41JywgJy1waCcsICc3LjUnLCAnLW50JywgJy1tYScsICcyMDAnLCAnLWltYWUnLCAnPGluZmlsZS5tYWU+JywgJy1vbWFlJywgJzxvdXRmaWxlLm1hZT4n

> <r_lp_tautomer_probability>
1

> <r_epik_Ionization_Penalty>
  0.0000

> <r_epik_Ionization_Penalty_Charging>
  0.0000

> <r_epik_Ionization_Penalty_Neutral>
  0.0000

> <r_epik_State_Penalty>
 -0.0000

> <r_epik_Charging_Adjusted_Penalty>
0

> <i_epik_Tot_Q>
0

> <i_epik_Tot_abs_Q>
0

> <s_lp_Force_Field>
OPLS3e

> <r_lp_Energy>
35.333636

> <b_lp_Chiralities_Consistent>
1

> <s_lp_Variant>
sdf/inactives_sanitized.sdf:137-1

$$$$
sdf/inactives_sanitized.sdf:138
                    3D
 Schrodinger Suite 2020-1.
 44 47  0  0  1  0            999 V2000
   -0.5066    2.4699    0.1346 N   0  0  0  0  0  0
   -1.5026    3.3901    0.0383 C   0  0  0  0  0  0
   -2.8387    3.1665   -0.0577 N   0  0  0  0  0  0
   -3.2372    1.8677   -0.0692 C   0  0  0  0  0  0
   -0.9442    1.2011    0.1043 C   0  0  0  0  0  0
   -2.3065    0.8175    0.0019 C   0  0  0  0  0  0
   -2.3352   -0.6073   -0.0067 C   0  0  0  0  0  0
   -1.0258   -1.0593    0.0765 C   0  0  0  0  0  0
   -0.1787    0.0432    0.1422 N   0  0  0  0  0  0
   -1.0806    4.7802    0.0181 C   0  0  0  0  0  0
   -0.7432    5.8872    0.0011 N   0  0  0  0  0  0
   -0.5129   -2.4925    0.0858 C   0  0  0  0  0  0
   -0.0162   -2.9632    1.4497 C   0  0  0  0  0  0
    1.2421   -3.5617    1.5640 C   0  0  0  0  0  0
    1.6980   -3.9955    2.8061 C   0  0  0  0  0  0
    0.8927   -3.8371    3.9325 C   0  0  0  0  0  0
   -0.3669   -3.2502    3.8251 C   0  0  0  0  0  0
   -0.8228   -2.8165    2.5832 C   0  0  0  0  0  0
    1.4591   -4.3731    5.4723 Cl  0  0  0  0  0  0
    1.2893    0.0091    0.1775 C   0  0  0  0  0  0
    1.9088   -0.0238   -1.2397 C   0  0  0  0  0  0
    1.5238    1.1646   -2.1129 C   0  0  0  0  0  0
    0.4936    1.0404   -3.0492 C   0  0  0  0  0  0
    0.1017    2.1445   -3.8011 C   0  0  0  0  0  0
    0.7442    3.3682   -3.6190 C   0  0  0  0  0  0
    1.7825    3.4935   -2.6975 C   0  0  0  0  0  0
    2.1742    2.3898   -1.9446 C   0  0  0  0  0  0
    0.2455    4.7415   -4.5374 Cl  0  0  0  0  0  0
   -4.2976    1.6798   -0.1493 H   0  0  0  0  0  0
   -3.2047   -1.2444   -0.0738 H   0  0  0  0  0  0
   -1.3272   -3.1606   -0.1978 H   0  0  0  0  0  0
    0.2570   -2.6358   -0.6735 H   0  0  0  0  0  0
    1.8711   -3.6870    0.6946 H   0  0  0  0  0  0
    2.6730   -4.4525    2.8927 H   0  0  0  0  0  0
   -0.9898   -3.1310    4.6995 H   0  0  0  0  0  0
   -1.8009   -2.3644    2.5044 H   0  0  0  0  0  0
    1.6536    0.8726    0.7362 H   0  0  0  0  0  0
    1.6116   -0.8596    0.7491 H   0  0  0  0  0  0
    2.9962   -0.0511   -1.1559 H   0  0  0  0  0  0
    1.6489   -0.9549   -1.7452 H   0  0  0  0  0  0
   -0.0179    0.0975   -3.1787 H   0  0  0  0  0  0
   -0.7031    2.0514   -4.5156 H   0  0  0  0  0  0
    2.2770    4.4437   -2.5577 H   0  0  0  0  0  0
    2.9664    2.4931   -1.2173 H   0  0  0  0  0  0
  1  2  2  0  0  0
  1  5  1  0  0  0
  2  3  1  0  0  0
  2 10  1  0  0  0
  3  4  2  0  0  0
  4  6  1  0  0  0
  4 29  1  0  0  0
  5  9  1  0  0  0
  5  6  2  0  0  0
  6  7  1  0  0  0
  7  8  2  0  0  0
  7 30  1  0  0  0
  8  9  1  0  0  0
  8 12  1  0  0  0
  9 20  1  0  0  0
 10 11  3  0  0  0
 12 13  1  0  0  0
 12 31  1  0  0  0
 12 32  1  0  0  0
 13 14  2  0  0  0
 13 18  1  0  0  0
 14 15  1  0  0  0
 14 33  1  0  0  0
 15 16  2  0  0  0
 15 34  1  0  0  0
 16 17  1  0  0  0
 16 19  1  0  0  0
 17 18  2  0  0  0
 17 35  1  0  0  0
 18 36  1  0  0  0
 20 21  1  0  0  0
 20 37  1  0  0  0
 20 38  1  0  0  0
 21 22  1  0  0  0
 21 39  1  0  0  0
 21 40  1  0  0  0
 22 23  2  0  0  0
 22 27  1  0  0  0
 23 24  1  0  0  0
 23 41  1  0  0  0
 24 25  2  0  0  0
 24 42  1  0  0  0
 25 26  1  0  0  0
 25 28  1  0  0  0
 26 27  2  0  0  0
 26 43  1  0  0  0
 27 44  1  0  0  0
M  END
> <chembl_id>
CHEMBL521700

> <chembl_pref_name>
None

> <s_m_source_file>
sdf/inactives_sanitized.sdf

> <i_m_source_file_index>
138

> <i_lp_mmshare_version>
49012

> <i_m_ct_stereo_status>
1

> <i_f3d_flags>
0

> <s_epik_input>
TiNDYyhuMSluW2NIXWMoYzEyKVtjSF1jKFtDSDJdYzNbY0hdW2NIXWMoQ2wpW2NIXVtjSF0zKW4yW0NIMl1bQ0gyXWM0W2NIXVtjSF1jKENsKVtjSF1bY0hdNA==

> <s_epik_cmdline>
J2VwaWtfcHl0aG9uJywgJy1waHQnLCAnMC41JywgJy1waCcsICc3LjUnLCAnLW50JywgJy1tYScsICcyMDAnLCAnLWltYWUnLCAnPGluZmlsZS5tYWU+JywgJy1vbWFlJywgJzxvdXRmaWxlLm1hZT4n

> <r_lp_tautomer_probability>
1

> <r_epik_Ionization_Penalty>
  0.0000

> <r_epik_Ionization_Penalty_Charging>
  0.0000

> <r_epik_Ionization_Penalty_Neutral>
  0.0000

> <r_epik_State_Penalty>
 -0.0000

> <r_epik_Charging_Adjusted_Penalty>
0

> <i_epik_Tot_Q>
0

> <i_epik_Tot_abs_Q>
0

> <s_lp_Force_Field>
OPLS3e

> <r_lp_Energy>
30.958133

> <b_lp_Chiralities_Consistent>
1

> <s_lp_Variant>
sdf/inactives_sanitized.sdf:138-1

$$$$
sdf/inactives_sanitized.sdf:139
                    3D
 Schrodinger Suite 2020-1.
 57 60  0  0  1  0            999 V2000
    3.5400   -1.0446    1.2053 C   0  0  0  0  0  0
    4.0349   -2.4494    1.4762 C   0  0  0  0  0  0
    4.4163   -1.7600    0.1927 C   0  0  0  0  0  0
   -1.7553    0.4368   -3.8819 S   0  0  0  0  0  0
   -3.0547    0.2102   -3.2376 O   0  0  0  0  0  0
   -1.6070    1.5289   -4.8502 O   0  0  0  0  0  0
   -0.4497    0.6428   -2.5206 C   0  0  2  0  0  0
   -0.3534   -0.5643   -1.5975 C   0  0  0  0  0  0
    0.1295   -0.0018   -0.2557 C   0  0  2  0  0  0
   -0.3473    1.3971   -0.2729 N   0  0  0  0  0  0
   -0.7286    1.8483   -1.6202 C   0  0  0  0  0  0
    1.6654   -0.0730   -0.0930 C   0  0  0  0  0  0
    2.1252   -0.8627    0.8918 N   0  0  0  0  0  0
    2.4077    0.5223   -0.8768 O   0  0  0  0  0  0
    4.1558    0.0714    1.9455 C   0  0  0  0  0  0
    4.6388    0.9478    2.5265 N   0  0  0  0  0  0
   -1.2826   -1.0916   -4.7139 C   0  0  0  0  0  0
   -2.1076   -2.2151   -4.5741 C   0  0  0  0  0  0
   -1.7760   -3.4208   -5.1902 C   0  0  0  0  0  0
   -0.6135   -3.5172   -5.9510 C   0  0  0  0  0  0
    0.2169   -2.4074   -6.0940 C   0  0  0  0  0  0
   -0.1072   -1.1947   -5.4814 C   0  0  0  0  0  0
   -0.5339    2.1303    0.8585 C   0  0  0  0  0  0
   -0.2794    1.6643    1.9729 O   0  0  0  0  0  0
   -1.0389    3.5960    0.7512 C   0  0  0  0  0  0
    0.1825    4.5193    0.5111 C   0  0  0  0  0  0
   -0.2909    5.9823    0.3743 C   0  0  0  0  0  0
   -1.1255    6.4405    1.5890 C   0  0  0  0  0  0
   -2.2894    5.4746    1.8969 C   0  0  0  0  0  0
   -1.8078    4.0146    2.0342 C   0  0  0  0  0  0
    0.9781    0.1345   -5.7034 Cl  0  0  0  0  0  0
    4.8020   -2.5978    2.2369 H   0  0  0  0  0  0
    3.3294   -3.2796    1.4291 H   0  0  0  0  0  0
    5.4476   -1.4299    0.0633 H   0  0  0  0  0  0
    3.9733   -2.1133   -0.7390 H   0  0  0  0  0  0
    0.4949    0.7897   -3.0431 H   0  0  0  0  0  0
   -1.3437   -0.9951   -1.4420 H   0  0  0  0  0  0
    0.2528   -1.3826   -1.9906 H   0  0  0  0  0  0
   -0.2971   -0.5371    0.5952 H   0  0  0  0  0  0
   -1.8018    2.0423   -1.6400 H   0  0  0  0  0  0
   -0.1927    2.7304   -1.9716 H   0  0  0  0  0  0
    1.4649   -1.2443    1.5532 H   0  0  0  0  0  0
   -3.0127   -2.1660   -3.9872 H   0  0  0  0  0  0
   -2.4207   -4.2800   -5.0774 H   0  0  0  0  0  0
   -0.3554   -4.4507   -6.4291 H   0  0  0  0  0  0
    1.1180   -2.4909   -6.6842 H   0  0  0  0  0  0
   -1.7304    3.6310   -0.0907 H   0  0  0  0  0  0
    0.8736    4.4946    1.3564 H   0  0  0  0  0  0
    0.6940    4.2779   -0.4221 H   0  0  0  0  0  0
    0.5698    6.6406    0.2496 H   0  0  0  0  0  0
   -0.8859    6.0888   -0.5343 H   0  0  0  0  0  0
   -0.4774    6.5129    2.4637 H   0  0  0  0  0  0
   -1.5126    7.4453    1.4156 H   0  0  0  0  0  0
   -2.7949    5.7863    2.8119 H   0  0  0  0  0  0
   -3.0347    5.5404    1.1026 H   0  0  0  0  0  0
   -1.1626    3.9947    2.9151 H   0  0  0  0  0  0
   -2.7005    3.4041    2.1808 H   0  0  0  0  0  0
  1  2  1  0  0  0
  1  3  1  0  0  0
  1 13  1  0  0  0
  1 15  1  0  0  0
  2  3  1  0  0  0
  2 32  1  0  0  0
  2 33  1  0  0  0
  3 34  1  0  0  0
  3 35  1  0  0  0
  4  5  2  0  0  0
  4  6  2  0  0  0
  4  7  1  0  0  0
  4 17  1  0  0  0
  7  8  1  0  0  0
  7 11  1  0  0  0
  7 36  1  0  0  0
  8  9  1  0  0  0
  8 37  1  0  0  0
  8 38  1  0  0  0
  9 10  1  0  0  0
  9 12  1  0  0  0
  9 39  1  0  0  0
 10 11  1  0  0  0
 10 23  1  0  0  0
 11 40  1  0  0  0
 11 41  1  0  0  0
 12 13  1  0  0  0
 12 14  2  0  0  0
 13 42  1  0  0  0
 15 16  3  0  0  0
 17 18  2  0  0  0
 17 22  1  0  0  0
 18 19  1  0  0  0
 18 43  1  0  0  0
 19 20  2  0  0  0
 19 44  1  0  0  0
 20 21  1  0  0  0
 20 45  1  0  0  0
 21 22  2  0  0  0
 21 46  1  0  0  0
 22 31  1  0  0  0
 23 24  2  0  0  0
 23 25  1  0  0  0
 25 26  1  0  0  0
 25 30  1  0  0  0
 25 47  1  0  0  0
 26 27  1  0  0  0
 26 48  1  0  0  0
 26 49  1  0  0  0
 27 28  1  0  0  0
 27 50  1  0  0  0
 27 51  1  0  0  0
 28 29  1  0  0  0
 28 52  1  0  0  0
 28 53  1  0  0  0
 29 30  1  0  0  0
 29 54  1  0  0  0
 29 55  1  0  0  0
 30 56  1  0  0  0
 30 57  1  0  0  0
M  END
> <chembl_id>
CHEMBL3093935

> <chembl_pref_name>
None

> <i_m_ct_stereo_status>
1

> <s_m_source_file>
sdf/inactives_sanitized.sdf

> <i_m_source_file_index>
139

> <i_lp_mmshare_version>
49012

> <i_f3d_flags>
0

> <s_epik_input>
W0NIMl0xW0NIMl1bQ0gyXVtDSDJdW0NIMl1bQ0hdMUMoPU8pTihbQ0gyXTIpW0NASF0oQyg9TylbTkhdQzMoQyNOKVtDSDJdW0NIMl0zKVtDSDJdW0NASF0yUyg9TykoPU8pYzRbY0hdW2NIXVtjSF1bY0hdYzRDbA==

> <s_epik_cmdline>
J2VwaWtfcHl0aG9uJywgJy1waHQnLCAnMC41JywgJy1waCcsICc3LjUnLCAnLW50JywgJy1tYScsICcyMDAnLCAnLWltYWUnLCAnPGluZmlsZS5tYWU+JywgJy1vbWFlJywgJzxvdXRmaWxlLm1hZT4n

> <r_lp_tautomer_probability>
1

> <r_epik_Ionization_Penalty>
  0.0000

> <r_epik_Ionization_Penalty_Charging>
  0.0000

> <r_epik_Ionization_Penalty_Neutral>
  0.0000

> <r_epik_State_Penalty>
 -0.0000

> <r_epik_Charging_Adjusted_Penalty>
0

> <i_epik_Tot_Q>
0

> <i_epik_Tot_abs_Q>
0

> <s_lp_Force_Field>
OPLS3e

> <r_lp_Energy>
35.521333

> <b_lp_Chiralities_Consistent>
1

> <s_lp_Variant>
sdf/inactives_sanitized.sdf:139-1

$$$$
sdf/inactives_sanitized.sdf:140
                    3D
 Schrodinger Suite 2020-1.
 44 46  0  0  1  0            999 V2000
    3.4393   -0.9402    1.5849 C   0  0  0  0  0  0
    3.8859   -2.3504    1.9076 C   0  0  0  0  0  0
    4.2942   -1.7199    0.6022 C   0  0  0  0  0  0
   -1.8533    0.4289   -3.5324 S   0  0  0  0  0  0
   -1.4504   -0.6655   -4.4224 O   0  0  0  0  0  0
   -3.1513    0.3677   -2.8494 O   0  0  0  0  0  0
   -0.5084    0.6762   -2.2166 C   0  0  2  0  0  0
   -0.4413   -0.4781   -1.2253 C   0  0  0  0  0  0
    0.0609    0.1444    0.0827 C   0  0  2  0  0  0
   -0.3820    1.5488   -0.0166 N   0  0  0  0  0  0
   -0.7089    1.9521   -1.3916 C   0  0  0  0  0  0
    1.5939    0.0448    0.2512 C   0  0  0  0  0  0
    2.0314   -0.7243    1.2621 N   0  0  0  0  0  0
    2.3519    0.5914   -0.5527 O   0  0  0  0  0  0
    4.0899    0.1799    2.2877 C   0  0  0  0  0  0
    4.6003    1.0594    2.8397 N   0  0  0  0  0  0
   -1.8139    1.9527   -4.4958 C   0  0  0  0  0  0
   -2.9000    2.8331   -4.4058 C   0  0  0  0  0  0
   -2.9078    4.0270   -5.1255 C   0  0  0  0  0  0
   -1.8280    4.3551   -5.9416 C   0  0  0  0  0  0
   -0.7412    3.4884   -6.0373 C   0  0  0  0  0  0
   -0.7241    2.2896   -5.3205 C   0  0  0  0  0  0
   -0.6373    2.3256    1.0658 C   0  0  0  0  0  0
   -0.4613    1.9364    2.2210 O   0  0  0  0  0  0
   -1.1336    3.7586    0.8498 C   0  0  0  0  0  0
    0.6638    1.2703   -5.4895 Cl  0  0  0  0  0  0
    4.6455   -2.4981    2.6762 H   0  0  0  0  0  0
    3.1531   -3.1577    1.8869 H   0  0  0  0  0  0
    5.3367   -1.4304    0.4664 H   0  0  0  0  0  0
    3.8426   -2.0904   -0.3188 H   0  0  0  0  0  0
    0.4298    0.7344   -2.7673 H   0  0  0  0  0  0
   -1.4424   -0.8717   -1.0426 H   0  0  0  0  0  0
    0.1412   -1.3338   -1.5718 H   0  0  0  0  0  0
   -0.3765   -0.3317    0.9627 H   0  0  0  0  0  0
   -1.7621    2.2312   -1.4459 H   0  0  0  0  0  0
   -0.0903    2.7614   -1.7812 H   0  0  0  0  0  0
    1.3588   -1.0689    1.9314 H   0  0  0  0  0  0
   -3.7479    2.6013   -3.7783 H   0  0  0  0  0  0
   -3.7512    4.6975   -5.0505 H   0  0  0  0  0  0
   -1.8327    5.2797   -6.4997 H   0  0  0  0  0  0
    0.0924    3.7504   -6.6725 H   0  0  0  0  0  0
   -2.1648    3.7545    0.4964 H   0  0  0  0  0  0
   -0.5148    4.2821    0.1207 H   0  0  0  0  0  0
   -1.0975    4.3222    1.7827 H   0  0  0  0  0  0
  1  2  1  0  0  0
  1  3  1  0  0  0
  1 13  1  0  0  0
  1 15  1  0  0  0
  2  3  1  0  0  0
  2 27  1  0  0  0
  2 28  1  0  0  0
  3 29  1  0  0  0
  3 30  1  0  0  0
  4  5  2  0  0  0
  4  6  2  0  0  0
  4  7  1  0  0  0
  4 17  1  0  0  0
  7  8  1  0  0  0
  7 11  1  0  0  0
  7 31  1  0  0  0
  8  9  1  0  0  0
  8 32  1  0  0  0
  8 33  1  0  0  0
  9 10  1  0  0  0
  9 12  1  0  0  0
  9 34  1  0  0  0
 10 11  1  0  0  0
 10 23  1  0  0  0
 11 35  1  0  0  0
 11 36  1  0  0  0
 12 13  1  0  0  0
 12 14  2  0  0  0
 13 37  1  0  0  0
 15 16  3  0  0  0
 17 18  2  0  0  0
 17 22  1  0  0  0
 18 19  1  0  0  0
 18 38  1  0  0  0
 19 20  2  0  0  0
 19 39  1  0  0  0
 20 21  1  0  0  0
 20 40  1  0  0  0
 21 22  2  0  0  0
 21 41  1  0  0  0
 22 26  1  0  0  0
 23 24  2  0  0  0
 23 25  1  0  0  0
 25 42  1  0  0  0
 25 43  1  0  0  0
 25 44  1  0  0  0
M  END
> <chembl_id>
CHEMBL3093936

> <chembl_pref_name>
None

> <i_m_ct_stereo_status>
1

> <s_m_source_file>
sdf/inactives_sanitized.sdf

> <i_m_source_file_index>
140

> <i_lp_mmshare_version>
49012

> <i_f3d_flags>
0

> <s_epik_input>
W0NIMl0xW0NIMl1DMShDI04pW05IXUMoPU8pW0NAQEhdKE4oW0NIMl0yKUMoPU8pW0NIM10pW0NIMl1bQ0BIXTJTKD1PKSg9TyljM1tjSF1bY0hdW2NIXVtjSF1jM0Ns

> <s_epik_cmdline>
J2VwaWtfcHl0aG9uJywgJy1waHQnLCAnMC41JywgJy1waCcsICc3LjUnLCAnLW50JywgJy1tYScsICcyMDAnLCAnLWltYWUnLCAnPGluZmlsZS5tYWU+JywgJy1vbWFlJywgJzxvdXRmaWxlLm1hZT4n

> <r_lp_tautomer_probability>
1

> <r_epik_Ionization_Penalty>
  0.0000

> <r_epik_Ionization_Penalty_Charging>
  0.0000

> <r_epik_Ionization_Penalty_Neutral>
  0.0000

> <r_epik_State_Penalty>
 -0.0000

> <r_epik_Charging_Adjusted_Penalty>
0

> <i_epik_Tot_Q>
0

> <i_epik_Tot_abs_Q>
0

> <s_lp_Force_Field>
OPLS3e

> <r_lp_Energy>
16.633136

> <b_lp_Chiralities_Consistent>
1

> <s_lp_Variant>
sdf/inactives_sanitized.sdf:140-1

$$$$
sdf/inactives_sanitized.sdf:141
                    3D
 Schrodinger Suite 2020-1.
 38 40  0  0  1  0            999 V2000
   -2.9650    0.1787    0.3565 N   0  0  0  0  0  0
   -2.3309   -1.0253    0.2539 C   0  0  0  0  0  0
   -0.9313   -1.1306    0.4465 C   0  0  0  0  0  0
   -0.2222    0.0561    0.7447 C   0  0  0  0  0  0
   -0.8596    1.2547    0.8404 N   0  0  0  0  0  0
   -2.1973    1.2548    0.6419 C   0  0  0  0  0  0
   -2.8766    2.5340    0.7500 C   0  0  0  0  0  0
   -3.4181    3.5533    0.8362 N   0  0  0  0  0  0
   -0.2647   -2.3601    0.3116 N   0  0  0  0  0  0
   -3.1444   -2.1366    0.0187 N   0  0  0  0  0  0
   -4.4480   -1.9964   -0.6595 C   0  0  0  0  0  0
   -5.0216   -3.3526   -1.1227 C   0  0  0  0  0  0
   -5.1342   -4.2329   -0.0131 O   0  0  0  0  0  0
   -3.8818   -4.4590    0.6186 C   0  0  0  0  0  0
   -3.2903   -3.1194    1.1081 C   0  0  0  0  0  0
    1.1776    0.0200    0.9196 N   0  0  0  0  0  0
    2.1291    1.0006    1.2538 C   0  0  0  0  0  0
    3.4465    0.7844    0.8407 C   0  0  0  0  0  0
    4.4408    1.7103    1.1459 C   0  0  0  0  0  0
    4.1190    2.8513    1.8761 C   0  0  0  0  0  0
    2.8138    3.0698    2.3092 C   0  0  0  0  0  0
    1.8195    2.1441    2.0028 C   0  0  0  0  0  0
    0.7337   -2.4076    0.4543 H   0  0  0  0  0  0
   -0.7961   -3.1867    0.0769 H   0  0  0  0  0  0
   -4.3191   -1.3619   -1.5376 H   0  0  0  0  0  0
   -5.1564   -1.4841   -0.0060 H   0  0  0  0  0  0
   -6.0124   -3.2093   -1.5545 H   0  0  0  0  0  0
   -4.4016   -3.7963   -1.9042 H   0  0  0  0  0  0
   -4.0355   -5.1294    1.4645 H   0  0  0  0  0  0
   -3.1953   -4.9672   -0.0614 H   0  0  0  0  0  0
   -2.3239   -3.3252    1.5671 H   0  0  0  0  0  0
   -3.9122   -2.6932    1.8972 H   0  0  0  0  0  0
    1.5879   -0.8677    0.6695 H   0  0  0  0  0  0
    3.7063   -0.0987    0.2744 H   0  0  0  0  0  0
    5.4564    1.5437    0.8183 H   0  0  0  0  0  0
    4.8897    3.5697    2.1144 H   0  0  0  0  0  0
    2.5742    3.9512    2.8857 H   0  0  0  0  0  0
    0.8216    2.3249    2.3710 H   0  0  0  0  0  0
  1  6  2  0  0  0
  1  2  1  0  0  0
  2  3  2  0  0  0
  2 10  1  0  0  0
  3  4  1  0  0  0
  3  9  1  0  0  0
  4 16  1  0  0  0
  4  5  2  0  0  0
  5  6  1  0  0  0
  6  7  1  0  0  0
  7  8  3  0  0  0
  9 23  1  0  0  0
  9 24  1  0  0  0
 10 15  1  0  0  0
 10 11  1  0  0  0
 11 12  1  0  0  0
 11 25  1  0  0  0
 11 26  1  0  0  0
 12 13  1  0  0  0
 12 27  1  0  0  0
 12 28  1  0  0  0
 13 14  1  0  0  0
 14 15  1  0  0  0
 14 29  1  0  0  0
 14 30  1  0  0  0
 15 31  1  0  0  0
 15 32  1  0  0  0
 16 17  1  0  0  0
 16 33  1  0  0  0
 17 18  2  0  0  0
 17 22  1  0  0  0
 18 19  1  0  0  0
 18 34  1  0  0  0
 19 20  2  0  0  0
 19 35  1  0  0  0
 20 21  1  0  0  0
 20 36  1  0  0  0
 21 22  2  0  0  0
 21 37  1  0  0  0
 22 38  1  0  0  0
M  END
> <chembl_id>
CHEMBL471578

> <chembl_pref_name>
None

> <s_m_source_file>
sdf/inactives_sanitized.sdf

> <i_m_source_file_index>
141

> <i_lp_mmshare_version>
49012

> <i_m_ct_stereo_status>
1

> <i_f3d_flags>
0

> <s_epik_input>
W0NIMl0xW0NIMl1PW0NIMl1bQ0gyXU4xYzJuYyhDI04pbmMoYzJbTkgyXSlbTkhdYzNbY0hdW2NIXVtjSF1bY0hdW2NIXTM=

> <s_epik_cmdline>
J2VwaWtfcHl0aG9uJywgJy1waHQnLCAnMC41JywgJy1waCcsICc3LjUnLCAnLW50JywgJy1tYScsICcyMDAnLCAnLWltYWUnLCAnPGluZmlsZS5tYWU+JywgJy1vbWFlJywgJzxvdXRmaWxlLm1hZT4n

> <r_lp_tautomer_probability>
1

> <r_epik_Ionization_Penalty>
  0.0000

> <r_epik_Ionization_Penalty_Charging>
  0.0000

> <r_epik_Ionization_Penalty_Neutral>
  0.0000

> <r_epik_State_Penalty>
 -0.0000

> <r_epik_Charging_Adjusted_Penalty>
0

> <i_epik_Tot_Q>
0

> <i_epik_Tot_abs_Q>
0

> <s_lp_Force_Field>
OPLS3e

> <r_lp_Energy>
47.07066

> <b_lp_Chiralities_Consistent>
1

> <s_lp_Variant>
sdf/inactives_sanitized.sdf:141-1

$$$$
sdf/inactives_sanitized.sdf:142
                    3D
 Schrodinger Suite 2020-1.
 48 51  0  0  1  0            999 V2000
   -5.0144   -0.0247    0.0245 C   0  0  0  0  0  0
   -4.6361    1.2595   -0.3645 C   0  0  0  0  0  0
   -3.2932    1.6238   -0.3999 C   0  0  0  0  0  0
   -2.2951    0.7045   -0.0499 C   0  0  0  0  0  0
   -2.6783   -0.5881    0.3423 C   0  0  0  0  0  0
   -4.0219   -0.9498    0.3792 C   0  0  0  0  0  0
   -6.3696   -0.2939    0.0324 O   0  0  0  0  0  0
   -6.8191   -1.5829    0.4368 C   0  0  0  0  0  0
   -0.8393    1.1237   -0.0866 C   0  0  0  0  0  0
   -0.5414    2.3193   -0.1216 O   0  0  0  0  0  0
    0.0595    0.1121   -0.1148 N   0  0  0  0  0  0
    1.4662    0.1597   -0.0995 C   0  0  0  0  0  0
    2.1155   -1.0243   -0.4637 C   0  0  0  0  0  0
    3.5066   -1.1305   -0.4735 C   0  0  0  0  0  0
    2.2119    1.2875    0.2863 C   0  0  0  0  0  0
    4.8231    2.3825    0.7149 S   0  0  0  0  0  0
    3.6095    1.1867    0.2849 C   0  0  0  0  0  0
    4.2625   -0.0136   -0.0930 C   0  0  0  0  0  0
    5.6198    0.0266   -0.0412 N   0  0  0  0  0  0
    6.0521    1.1875    0.3651 C   0  0  0  0  0  0
    7.7515    1.5695    0.5701 S   0  0  0  0  0  0
    7.8408    1.0360    2.3131 C   0  0  0  0  0  0
    9.2460    1.2393    2.9196 C   0  0  0  0  0  0
    9.4377    0.8304    4.3519 C   0  0  0  0  0  0
   10.1568    1.7223    2.2416 O   0  0  0  0  0  0
    8.3946    0.2702    5.1073 C   0  0  0  0  0  0
    8.6036   -0.0997    6.4335 C   0  0  0  0  0  0
    9.8537    0.0868    7.0155 C   0  0  0  0  0  0
   10.8987    0.6403    6.2821 C   0  0  0  0  0  0
   10.6917    1.0104    4.9558 C   0  0  0  0  0  0
   -5.3900    1.9823   -0.6406 H   0  0  0  0  0  0
   -3.0395    2.6288   -0.7069 H   0  0  0  0  0  0
   -1.9454   -1.3276    0.6310 H   0  0  0  0  0  0
   -4.2733   -1.9531    0.6878 H   0  0  0  0  0  0
   -7.9075   -1.6166    0.3891 H   0  0  0  0  0  0
   -6.5267   -1.8037    1.4645 H   0  0  0  0  0  0
   -6.4355   -2.3646   -0.2206 H   0  0  0  0  0  0
   -0.3249   -0.8188   -0.1827 H   0  0  0  0  0  0
    1.5343   -1.8894   -0.7513 H   0  0  0  0  0  0
    3.9833   -2.0558   -0.7622 H   0  0  0  0  0  0
    1.7470    2.2090    0.5996 H   0  0  0  0  0  0
    7.1056    1.5932    2.8942 H   0  0  0  0  0  0
    7.5591   -0.0154    2.3766 H   0  0  0  0  0  0
    7.4117    0.1111    4.6888 H   0  0  0  0  0  0
    7.7977   -0.5303    7.0094 H   0  0  0  0  0  0
   10.0140   -0.2000    8.0445 H   0  0  0  0  0  0
   11.8666    0.7824    6.7401 H   0  0  0  0  0  0
   11.5189    1.4386    4.4069 H   0  0  0  0  0  0
  1  2  2  0  0  0
  1  6  1  0  0  0
  1  7  1  0  0  0
  2  3  1  0  0  0
  2 31  1  0  0  0
  3  4  2  0  0  0
  3 32  1  0  0  0
  4  5  1  0  0  0
  4  9  1  0  0  0
  5  6  2  0  0  0
  5 33  1  0  0  0
  6 34  1  0  0  0
  7  8  1  0  0  0
  8 35  1  0  0  0
  8 36  1  0  0  0
  8 37  1  0  0  0
  9 10  2  0  0  0
  9 11  1  0  0  0
 11 12  1  0  0  0
 11 38  1  0  0  0
 12 13  2  0  0  0
 12 15  1  0  0  0
 13 14  1  0  0  0
 13 39  1  0  0  0
 14 18  2  0  0  0
 14 40  1  0  0  0
 15 17  2  0  0  0
 15 41  1  0  0  0
 16 17  1  0  0  0
 16 20  1  0  0  0
 17 18  1  0  0  0
 18 19  1  0  0  0
 19 20  2  0  0  0
 20 21  1  0  0  0
 21 22  1  0  0  0
 22 23  1  0  0  0
 22 42  1  0  0  0
 22 43  1  0  0  0
 23 24  1  0  0  0
 23 25  2  0  0  0
 24 26  2  0  0  0
 24 30  1  0  0  0
 26 27  1  0  0  0
 26 44  1  0  0  0
 27 28  2  0  0  0
 27 45  1  0  0  0
 28 29  1  0  0  0
 28 46  1  0  0  0
 29 30  2  0  0  0
 29 47  1  0  0  0
 30 48  1  0  0  0
M  END
> <chembl_id>
CHEMBL3218779

> <chembl_pref_name>
None

> <s_m_source_file>
sdf/inactives_sanitized.sdf

> <i_m_source_file_index>
142

> <i_lp_mmshare_version>
49012

> <i_m_ct_stereo_status>
1

> <i_f3d_flags>
0

> <s_epik_input>
W0NIM11PYzFbY0hdW2NIXWMoW2NIXVtjSF0xKUMoPU8pW05IXWMoW2NIXTIpW2NIXVtjSF1jKGMyMyluYyhzMylTW0NIMl1DKD1PKWM0W2NIXVtjSF1bY0hdW2NIXVtjSF00

> <s_epik_cmdline>
J2VwaWtfcHl0aG9uJywgJy1waHQnLCAnMC41JywgJy1waCcsICc3LjUnLCAnLW50JywgJy1tYScsICcyMDAnLCAnLWltYWUnLCAnPGluZmlsZS5tYWU+JywgJy1vbWFlJywgJzxvdXRmaWxlLm1hZT4n

> <r_lp_tautomer_probability>
1

> <r_epik_Ionization_Penalty>
  0.0000

> <r_epik_Ionization_Penalty_Charging>
  0.0000

> <r_epik_Ionization_Penalty_Neutral>
  0.0000

> <r_epik_State_Penalty>
 -0.0000

> <r_epik_Charging_Adjusted_Penalty>
0

> <i_epik_Tot_Q>
0

> <i_epik_Tot_abs_Q>
0

> <s_lp_Force_Field>
OPLS3e

> <r_lp_Energy>
46.679088

> <b_lp_Chiralities_Consistent>
1

> <s_lp_Variant>
sdf/inactives_sanitized.sdf:142-1

$$$$
sdf/inactives_sanitized.sdf:143
                    3D
 Schrodinger Suite 2020-1.
 58 58  0  0  1  0            999 V2000
    2.2611   -0.1164   -1.9380 C   0  0  0  0  0  0
   -0.6822    1.4163   -0.3464 C   0  0  0  0  0  0
    3.7330    0.3591   -2.2711 C   0  0  0  0  0  0
    7.5590    0.4661   -1.6565 N   0  0  0  0  0  0
    0.1688    0.5154   -0.9734 N   0  0  0  0  0  0
    6.7602   -0.5223   -1.9827 C   0  0  0  0  0  0
    1.6187    0.5587   -0.7219 C   0  0  1  0  0  0
   -1.9586    1.0835   -0.6437 O   0  0  0  0  0  0
   -3.0822    1.8133   -0.1324 C   0  0  0  0  0  0
    6.7925   -1.8496   -0.8564 S   0  0  0  0  0  0
    4.4558   -0.6037   -2.8735 N   0  0  0  0  0  0
    1.7237   -0.9916   -2.6273 O   0  0  0  0  0  0
    8.2138    0.2374   -0.5358 C   0  0  0  0  0  0
   -0.3486    2.3591    0.3755 O   0  0  0  0  0  0
    7.9582   -0.9765    0.0875 C   0  0  0  0  0  0
    4.1372    1.4800   -1.9578 O   0  0  0  0  0  0
    5.8725   -0.4834   -3.2143 C   0  0  0  0  0  0
   -4.0572    0.7967    0.5362 C   0  0  0  0  0  0
   -3.6917    2.6964   -1.2652 C   0  0  0  0  0  0
    1.9896   -0.1631    0.6077 C   0  0  0  0  0  0
   -4.2387    1.8822   -2.4563 C   0  0  0  0  0  0
   -2.7128    3.7843   -1.7501 C   0  0  0  0  0  0
   -5.3580    1.4492    1.0492 C   0  0  0  0  0  0
   -3.3758    0.0279    1.6886 C   0  0  0  0  0  0
    3.4791   -0.1185    1.0125 C   0  0  0  0  0  0
    3.7309   -0.6453    2.4355 C   0  0  0  0  0  0
    5.2169   -0.6383    2.8188 C   0  0  0  0  0  0
   -0.2235   -0.3337   -1.3536 H   0  0  0  0  0  0
    1.9270    1.6065   -0.6785 H   0  0  0  0  0  0
   -2.7650    2.4894    0.6644 H   0  0  0  0  0  0
    4.0107   -1.4851   -3.0856 H   0  0  0  0  0  0
    8.8983    0.9877   -0.1688 H   0  0  0  0  0  0
    8.3694   -1.3766    1.0026 H   0  0  0  0  0  0
    6.0381    0.4076   -3.8240 H   0  0  0  0  0  0
    6.1047   -1.3305   -3.8597 H   0  0  0  0  0  0
   -4.3417    0.0543   -0.2109 H   0  0  0  0  0  0
   -4.5315    3.2435   -0.8372 H   0  0  0  0  0  0
    1.4081    0.2914    1.4114 H   0  0  0  0  0  0
    1.6548   -1.2019    0.5699 H   0  0  0  0  0  0
   -3.4532    1.2987   -2.9379 H   0  0  0  0  0  0
   -4.6729    2.5360   -3.2135 H   0  0  0  0  0  0
   -5.0231    1.1919   -2.1464 H   0  0  0  0  0  0
   -1.8533    3.3552   -2.2662 H   0  0  0  0  0  0
   -2.3366    4.3778   -0.9161 H   0  0  0  0  0  0
   -3.1989    4.4716   -2.4435 H   0  0  0  0  0  0
   -5.1488    2.2612    1.7468 H   0  0  0  0  0  0
   -5.9870    0.7242    1.5672 H   0  0  0  0  0  0
   -5.9589    1.8529    0.2346 H   0  0  0  0  0  0
   -3.0347    0.7063    2.4717 H   0  0  0  0  0  0
   -2.5104   -0.5373    1.3415 H   0  0  0  0  0  0
   -4.0584   -0.6890    2.1463 H   0  0  0  0  0  0
    4.0678   -0.7143    0.3150 H   0  0  0  0  0  0
    3.8465    0.9062    0.9376 H   0  0  0  0  0  0
    3.1736   -0.0422    3.1537 H   0  0  0  0  0  0
    3.3447   -1.6618    2.5245 H   0  0  0  0  0  0
    5.3579   -0.9974    3.8384 H   0  0  0  0  0  0
    5.6371    0.3665    2.7599 H   0  0  0  0  0  0
    5.7972   -1.2835    2.1591 H   0  0  0  0  0  0
  1  3  1  0  0  0
  1  7  1  0  0  0
  1 12  2  0  0  0
  2  5  1  0  0  0
  2  8  1  0  0  0
  2 14  2  0  0  0
  3 11  1  0  0  0
  3 16  2  0  0  0
  4  6  2  0  0  0
  4 13  1  0  0  0
  5  7  1  0  0  0
  5 28  1  0  0  0
  6 17  1  0  0  0
  6 10  1  0  0  0
  7 20  1  0  0  0
  7 29  1  0  0  0
  8  9  1  0  0  0
  9 18  1  0  0  0
  9 19  1  0  0  0
  9 30  1  0  0  0
 10 15  1  0  0  0
 11 17  1  0  0  0
 11 31  1  0  0  0
 13 15  2  0  0  0
 13 32  1  0  0  0
 15 33  1  0  0  0
 17 34  1  0  0  0
 17 35  1  0  0  0
 18 23  1  0  0  0
 18 24  1  0  0  0
 18 36  1  0  0  0
 19 21  1  0  0  0
 19 22  1  0  0  0
 19 37  1  0  0  0
 20 25  1  0  0  0
 20 38  1  0  0  0
 20 39  1  0  0  0
 21 40  1  0  0  0
 21 41  1  0  0  0
 21 42  1  0  0  0
 22 43  1  0  0  0
 22 44  1  0  0  0
 22 45  1  0  0  0
 23 46  1  0  0  0
 23 47  1  0  0  0
 23 48  1  0  0  0
 24 49  1  0  0  0
 24 50  1  0  0  0
 24 51  1  0  0  0
 25 26  1  0  0  0
 25 52  1  0  0  0
 25 53  1  0  0  0
 26 27  1  0  0  0
 26 54  1  0  0  0
 26 55  1  0  0  0
 27 56  1  0  0  0
 27 57  1  0  0  0
 27 58  1  0  0  0
M  END
> <chembl_id>
CHEMBL418935

> <chembl_pref_name>
None

> <i_m_ct_stereo_status>
1

> <s_m_source_file>
sdf/inactives_sanitized.sdf

> <i_m_source_file_index>
143

> <i_lp_mmshare_version>
49012

> <i_f3d_flags>
0

> <s_epik_input>
W0NIM11bQ0hdKFtDSDNdKVtDSF0oW0NIXShbQ0gzXSlbQ0gzXSlPQyg9TylbTkhdW0NAQEhdKFtDSDJdW0NIMl1bQ0gyXVtDSDNdKUMoPU8pQyg9TylbTkhdW0NIMl1jMW5bY0hdW2NIXXMx

> <s_epik_cmdline>
J2VwaWtfcHl0aG9uJywgJy1waHQnLCAnMC41JywgJy1waCcsICc3LjUnLCAnLW50JywgJy1tYScsICcyMDAnLCAnLWltYWUnLCAnPGluZmlsZS5tYWU+JywgJy1vbWFlJywgJzxvdXRmaWxlLm1hZT4n

> <r_lp_tautomer_probability>
1

> <r_epik_Ionization_Penalty>
  0.0000

> <r_epik_Ionization_Penalty_Charging>
  0.0000

> <r_epik_Ionization_Penalty_Neutral>
  0.0000

> <r_epik_State_Penalty>
 -0.0000

> <r_epik_Charging_Adjusted_Penalty>
0

> <i_epik_Tot_Q>
0

> <i_epik_Tot_abs_Q>
0

> <s_epik_Chemistry_Notes>
This compound has an ester and may undergo hydrolysis at high or low pH.

> <s_lp_Force_Field>
OPLS3e

> <r_lp_Energy>
19.119678

> <b_lp_Chiralities_Consistent>
1

> <s_lp_Variant>
sdf/inactives_sanitized.sdf:143-1

$$$$
sdf/inactives_sanitized.sdf:144
                    3D
 Schrodinger Suite 2020-1.
 51 53  0  0  1  0            999 V2000
    5.1887    3.3220   -0.8671 C   0  0  0  0  0  0
    3.7955    2.9424   -1.3214 C   0  0  0  0  0  0
    4.9932    2.6836   -2.2174 C   0  0  0  0  0  0
   -3.3033   -0.2102   -3.2312 C   0  0  0  0  0  0
   -3.4160    0.9782   -3.9487 C   0  0  0  0  0  0
   -2.6221    2.0769   -3.6276 C   0  0  0  0  0  0
   -1.7084    1.9879   -2.5807 C   0  0  0  0  0  0
   -1.5863    0.7994   -1.8537 C   0  0  0  0  0  0
   -2.3896   -0.3007   -2.1852 C   0  0  0  0  0  0
   -0.5781    0.7245   -0.7029 C   0  0  2  0  0  0
    0.3408   -0.3978   -0.9398 N   0  0  1  0  0  0
    1.7425   -0.2046   -0.4886 C   0  0  2  0  0  0
    2.4611    0.8640   -1.3477 C   0  0  0  0  0  0
    3.1501    1.8028   -0.6781 N   0  0  0  0  0  0
    2.3755    0.8270   -2.5765 O   0  0  0  0  0  0
    2.8749    4.0162   -1.7359 C   0  0  0  0  0  0
    2.1509    4.8583   -2.0606 N   0  0  0  0  0  0
    2.5465   -1.5266   -0.4863 C   0  0  0  0  0  0
   -1.2713    0.6325    0.6840 C   0  0  0  0  0  0
   -0.3909    0.6024    1.6847 F   0  0  0  0  0  0
   -2.0505    1.6944    0.8912 F   0  0  0  0  0  0
   -2.0413   -0.4484    0.8048 F   0  0  0  0  0  0
    2.2434   -2.6434    1.0161 S   0  0  0  0  0  0
    0.5133   -3.0925    0.9158 C   0  0  0  0  0  0
    3.0023   -3.8834    0.8218 O   0  0  0  0  0  0
    2.4299   -1.8444    2.2329 O   0  0  0  0  0  0
   -0.3361   -2.9016    2.0087 C   0  0  0  0  0  0
   -1.6831   -3.2498    1.9136 C   0  0  0  0  0  0
   -2.1938   -3.7752    0.7250 C   0  0  0  0  0  0
   -1.3423   -3.9727   -0.3706 C   0  0  0  0  0  0
    0.0101   -3.6432   -0.2657 C   0  0  0  0  0  0
   -1.9319   -4.6106   -1.8661 Cl  0  0  0  0  0  0
   -3.8768   -4.1634    0.6377 Cl  0  0  0  0  0  0
   -4.3034    1.0658   -4.9652 F   0  0  0  0  0  0
    5.4567    4.3781   -0.8222 H   0  0  0  0  0  0
    5.6693    2.7374   -0.0821 H   0  0  0  0  0  0
    5.3369    1.6590   -2.3637 H   0  0  0  0  0  0
    5.1233    3.2964   -3.1096 H   0  0  0  0  0  0
   -3.9209   -1.0589   -3.4856 H   0  0  0  0  0  0
   -2.7144    2.9950   -4.1885 H   0  0  0  0  0  0
   -1.0960    2.8447   -2.3390 H   0  0  0  0  0  0
   -2.3059   -1.2276   -1.6367 H   0  0  0  0  0  0
   -0.0078    1.6544   -0.7196 H   0  0  0  0  0  0
   -0.0417   -1.1780   -0.4244 H   0  0  0  0  0  0
    1.7567    0.1451    0.5450 H   0  0  0  0  0  0
    3.1223    1.8051    0.3314 H   0  0  0  0  0  0
    2.3250   -2.1123   -1.3794 H   0  0  0  0  0  0
    3.6222   -1.3483   -0.5348 H   0  0  0  0  0  0
    0.0385   -2.4842    2.9318 H   0  0  0  0  0  0
   -2.3344   -3.0961    2.7618 H   0  0  0  0  0  0
    0.6647   -3.8009   -1.1106 H   0  0  0  0  0  0
  1  2  1  0  0  0
  1  3  1  0  0  0
  1 35  1  0  0  0
  1 36  1  0  0  0
  2 14  1  0  0  0
  2 16  1  0  0  0
  2  3  1  0  0  0
  3 37  1  0  0  0
  3 38  1  0  0  0
  4  9  2  0  0  0
  4  5  1  0  0  0
  4 39  1  0  0  0
  5  6  2  0  0  0
  5 34  1  0  0  0
  6  7  1  0  0  0
  6 40  1  0  0  0
  7  8  2  0  0  0
  7 41  1  0  0  0
  8  9  1  0  0  0
  8 10  1  0  0  0
  9 42  1  0  0  0
 10 11  1  0  0  0
 10 19  1  0  0  0
 10 43  1  0  0  0
 11 12  1  0  0  0
 11 44  1  0  0  0
 12 13  1  0  0  0
 12 18  1  0  0  0
 12 45  1  0  0  0
 13 14  1  0  0  0
 13 15  2  0  0  0
 14 46  1  0  0  0
 16 17  3  0  0  0
 18 23  1  0  0  0
 18 47  1  0  0  0
 18 48  1  0  0  0
 19 20  1  0  0  0
 19 21  1  0  0  0
 19 22  1  0  0  0
 23 24  1  0  0  0
 23 25  2  0  0  0
 23 26  2  0  0  0
 24 27  2  0  0  0
 24 31  1  0  0  0
 27 28  1  0  0  0
 27 49  1  0  0  0
 28 29  2  0  0  0
 28 50  1  0  0  0
 29 30  1  0  0  0
 29 33  1  0  0  0
 30 31  2  0  0  0
 30 32  1  0  0  0
 31 51  1  0  0  0
M  END
> <chembl_id>
CHEMBL251117

> <chembl_pref_name>
None

> <i_m_ct_stereo_status>
1

> <s_m_source_file>
sdf/inactives_sanitized.sdf

> <i_m_source_file_index>
144

> <i_lp_mmshare_version>
49012

> <i_f3d_flags>
0

> <s_epik_input>
RmMxW2NIXVtjSF1jKFtjSF1bY0hdMSlbQ0BASF0oQyhGKShGKUYpW05IXVtDQEhdKEMoPU8pW05IXUMyKEMjTilbQ0gyXVtDSDJdMilbQ0gyXVMoPU8pKD1PKWMzW2NIXVtjSF1jKENsKWMoQ2wpW2NIXTM=

> <s_epik_cmdline>
J2VwaWtfcHl0aG9uJywgJy1waHQnLCAnMC41JywgJy1waCcsICc3LjUnLCAnLW50JywgJy1tYScsICcyMDAnLCAnLWltYWUnLCAnPGluZmlsZS5tYWU+JywgJy1vbWFlJywgJzxvdXRmaWxlLm1hZT4n

> <r_lp_tautomer_probability>
1

> <r_epik_Ionization_Penalty>
  0.0001

> <r_epik_Ionization_Penalty_Charging>
  0.0000

> <r_epik_Ionization_Penalty_Neutral>
  0.0001

> <r_epik_State_Penalty>
 -0.0000

> <r_epik_Charging_Adjusted_Penalty>
0

> <i_epik_Tot_Q>
0

> <i_epik_Tot_abs_Q>
0

> <s_lp_Force_Field>
OPLS3e

> <r_lp_Energy>
34.166253

> <b_lp_Chiralities_Consistent>
1

> <s_lp_Variant>
sdf/inactives_sanitized.sdf:144-1

$$$$
sdf/inactives_sanitized.sdf:145
                    3D
 Schrodinger Suite 2020-1.
 58 59  0  0  1  0            999 V2000
    5.5301    0.8070   -0.7988 C   0  0  0  0  0  0
    4.3047    0.4492   -0.4518 N   0  0  0  0  0  0
    3.5015    0.2888   -1.4783 C   0  0  0  0  0  0
    2.0882   -0.0950   -1.4278 C   0  0  0  0  0  0
    6.5285    1.0134    0.3271 C   0  0  0  0  0  0
    4.2590    0.5919   -3.0164 S   0  0  0  0  0  0
   -0.6255    0.9880   -0.2981 C   0  0  0  0  0  0
    5.7328    0.9456   -2.1709 C   0  0  0  0  0  0
   -0.0075   -0.2433   -0.0887 N   0  0  0  0  0  0
    1.4663   -0.3746   -0.0493 C   0  0  1  0  0  0
    1.4262   -0.2001   -2.4648 O   0  0  0  0  0  0
   -1.9636    0.8262   -0.1878 O   0  0  0  0  0  0
   -0.0635    2.0623   -0.5256 O   0  0  0  0  0  0
    7.7219    1.3808   -0.1407 F   0  0  0  0  0  0
    6.1207    1.9643    1.1683 F   0  0  0  0  0  0
    6.7038   -0.1065    1.0296 F   0  0  0  0  0  0
   -2.8774    1.9117   -0.3610 C   0  0  2  0  0  0
   -4.1815    1.5212    0.3737 C   0  0  0  0  0  0
   -5.3021    2.5917    0.3927 C   0  0  0  0  0  0
    1.8786   -1.7991    0.4102 C   0  0  0  0  0  0
   -3.0878    2.2008   -1.8635 C   0  0  0  0  0  0
   -4.8697    3.9079    1.0853 C   0  0  0  0  0  0
   -6.5664    2.0542    1.1040 C   0  0  0  0  0  0
    1.3978   -2.1564    1.8322 C   0  0  0  0  0  0
    1.8692   -3.5474    2.2914 C   0  0  0  0  0  0
    1.3948   -3.9021    3.7071 C   0  0  0  0  0  0
   -7.7224    3.0740    1.0555 C   0  0  0  0  0  0
   -5.9909    4.9663    1.0407 C   0  0  0  0  0  0
   -7.3029    4.4332    1.6549 C   0  0  0  0  0  0
    6.6328    1.2254   -2.6988 H   0  0  0  0  0  0
   -0.5434   -0.9492    0.3946 H   0  0  0  0  0  0
    1.8443    0.3221    0.7026 H   0  0  0  0  0  0
   -2.4609    2.7962    0.1232 H   0  0  0  0  0  0
   -4.5727    0.6061   -0.0745 H   0  0  0  0  0  0
   -3.9354    1.2584    1.4043 H   0  0  0  0  0  0
   -5.5865    2.8278   -0.6340 H   0  0  0  0  0  0
    1.4841   -2.5407   -0.2880 H   0  0  0  0  0  0
    2.9654   -1.9005    0.3862 H   0  0  0  0  0  0
   -3.7413    3.0592   -2.0168 H   0  0  0  0  0  0
   -3.5325    1.3461   -2.3743 H   0  0  0  0  0  0
   -2.1457    2.4295   -2.3621 H   0  0  0  0  0  0
   -4.5736    3.7072    2.1163 H   0  0  0  0  0  0
   -3.9740    4.3108    0.6136 H   0  0  0  0  0  0
   -6.8824    1.1187    0.6404 H   0  0  0  0  0  0
   -6.3328    1.7867    2.1359 H   0  0  0  0  0  0
    1.7604   -1.4048    2.5352 H   0  0  0  0  0  0
    0.3083   -2.1194    1.8744 H   0  0  0  0  0  0
    1.5097   -4.3051    1.5938 H   0  0  0  0  0  0
    2.9588   -3.5949    2.2588 H   0  0  0  0  0  0
    1.7454   -4.8927    3.9978 H   0  0  0  0  0  0
    0.3062   -3.9045    3.7715 H   0  0  0  0  0  0
    1.7723   -3.1897    4.4414 H   0  0  0  0  0  0
   -8.0424    3.2149    0.0219 H   0  0  0  0  0  0
   -8.5873    2.6830    1.5921 H   0  0  0  0  0  0
   -5.6736    5.8665    1.5682 H   0  0  0  0  0  0
   -6.1680    5.2654    0.0065 H   0  0  0  0  0  0
   -8.1018    5.1629    1.5182 H   0  0  0  0  0  0
   -7.1741    4.3237    2.7327 H   0  0  0  0  0  0
  1  2  1  0  0  0
  1  5  1  0  0  0
  1  8  2  0  0  0
  2  3  2  0  0  0
  3  4  1  0  0  0
  3  6  1  0  0  0
  4 10  1  0  0  0
  4 11  2  0  0  0
  5 14  1  0  0  0
  5 15  1  0  0  0
  5 16  1  0  0  0
  6  8  1  0  0  0
  7  9  1  0  0  0
  7 12  1  0  0  0
  7 13  2  0  0  0
  8 30  1  0  0  0
  9 10  1  0  0  0
  9 31  1  0  0  0
 10 20  1  0  0  0
 10 32  1  0  0  0
 12 17  1  0  0  0
 17 18  1  0  0  0
 17 21  1  0  0  0
 17 33  1  0  0  0
 18 19  1  0  0  0
 18 34  1  0  0  0
 18 35  1  0  0  0
 19 22  1  0  0  0
 19 23  1  0  0  0
 19 36  1  0  0  0
 20 24  1  0  0  0
 20 37  1  0  0  0
 20 38  1  0  0  0
 21 39  1  0  0  0
 21 40  1  0  0  0
 21 41  1  0  0  0
 22 28  1  0  0  0
 22 42  1  0  0  0
 22 43  1  0  0  0
 23 27  1  0  0  0
 23 44  1  0  0  0
 23 45  1  0  0  0
 24 25  1  0  0  0
 24 46  1  0  0  0
 24 47  1  0  0  0
 25 26  1  0  0  0
 25 48  1  0  0  0
 25 49  1  0  0  0
 26 50  1  0  0  0
 26 51  1  0  0  0
 26 52  1  0  0  0
 27 29  1  0  0  0
 27 53  1  0  0  0
 27 54  1  0  0  0
 28 29  1  0  0  0
 28 55  1  0  0  0
 28 56  1  0  0  0
 29 57  1  0  0  0
 29 58  1  0  0  0
M  END
> <chembl_id>
CHEMBL182539

> <chembl_pref_name>
None

> <i_m_ct_stereo_status>
1

> <s_m_source_file>
sdf/inactives_sanitized.sdf

> <i_m_source_file_index>
145

> <i_lp_mmshare_version>
49012

> <i_f3d_flags>
0

> <s_epik_input>
RkMoRikoRiljMW5jKHNbY0hdMSlDKD1PKVtDQEhdKFtDSDJdW0NIMl1bQ0gyXVtDSDNdKVtOSF1DKD1PKU9bQ0BASF0oW0NIM10pW0NIMl1bQ0hdMltDSDJdW0NIMl1bQ0gyXVtDSDJdW0NIMl0y

> <s_epik_cmdline>
J2VwaWtfcHl0aG9uJywgJy1waHQnLCAnMC41JywgJy1waCcsICc3LjUnLCAnLW50JywgJy1tYScsICcyMDAnLCAnLWltYWUnLCAnPGluZmlsZS5tYWU+JywgJy1vbWFlJywgJzxvdXRmaWxlLm1hZT4n

> <r_lp_tautomer_probability>
1

> <r_epik_Ionization_Penalty>
  0.0000

> <r_epik_Ionization_Penalty_Charging>
  0.0000

> <r_epik_Ionization_Penalty_Neutral>
  0.0000

> <r_epik_State_Penalty>
 -0.0000

> <r_epik_Charging_Adjusted_Penalty>
0

> <i_epik_Tot_Q>
0

> <i_epik_Tot_abs_Q>
0

> <s_epik_Chemistry_Notes>
This compound has an ester and may undergo hydrolysis at high or low pH.

> <s_lp_Force_Field>
OPLS3e

> <r_lp_Energy>
23.238203

> <b_lp_Chiralities_Consistent>
1

> <s_lp_Variant>
sdf/inactives_sanitized.sdf:145-1

$$$$
sdf/inactives_sanitized.sdf:146
                    3D
 Schrodinger Suite 2020-1.
 57 57  0  0  1  0            999 V2000
    2.1062   -0.4418   -1.9830 C   0  0  0  0  0  0
   -0.5714    1.3851   -0.3271 C   0  0  0  0  0  0
    7.1583   -2.1899   -1.8496 N   0  0  0  0  0  0
    6.2615   -2.2208   -2.8042 C   0  0  0  0  0  0
    3.6940   -0.4248   -2.0348 C   0  0  0  0  0  0
    7.4205   -3.5188   -1.5286 N   0  0  0  0  0  0
    0.0779    0.3207   -0.9398 N   0  0  0  0  0  0
    5.8957   -3.4824   -3.1440 O   0  0  0  0  0  0
    1.4947    0.0239   -0.6567 C   0  0  1  0  0  0
   -1.8733    1.3635   -0.6914 O   0  0  0  0  0  0
   -2.8276    2.3142   -0.1985 C   0  0  0  0  0  0
    6.6563   -4.2375   -2.3128 C   0  0  0  0  0  0
    4.1803   -0.9476   -3.1769 N   0  0  0  0  0  0
    1.4579   -0.8039   -2.9731 O   0  0  0  0  0  0
   -0.0661    2.2124    0.4353 O   0  0  0  0  0  0
    4.3677    0.0254   -1.1065 O   0  0  0  0  0  0
    5.6006   -1.0528   -3.5076 C   0  0  0  0  0  0
   -3.6809    1.6708    0.9403 C   0  0  0  0  0  0
   -3.6316    2.8619   -1.4176 C   0  0  0  0  0  0
    1.6625   -1.0716    0.4351 C   0  0  0  0  0  0
   -2.7078    3.5412   -2.4516 C   0  0  0  0  0  0
   -4.7600    3.8347   -1.0155 C   0  0  0  0  0  0
   -2.8417    1.3213    2.1855 C   0  0  0  0  0  0
   -4.5054    0.4508    0.4790 C   0  0  0  0  0  0
    1.1640   -0.6499    1.8318 C   0  0  0  0  0  0
    1.4326   -1.7110    2.9126 C   0  0  0  0  0  0
    0.9292   -1.2873    4.2990 C   0  0  0  0  0  0
   -0.4731   -0.3797   -1.4145 H   0  0  0  0  0  0
    2.0101    0.9362   -0.3450 H   0  0  0  0  0  0
   -2.3129    3.1769    0.2298 H   0  0  0  0  0  0
    6.5510   -5.3099   -2.3865 H   0  0  0  0  0  0
    3.5278   -1.2760   -3.8743 H   0  0  0  0  0  0
    6.1069   -0.1128   -3.2778 H   0  0  0  0  0  0
    5.6848   -1.1647   -4.5888 H   0  0  0  0  0  0
   -4.3886    2.4253    1.2836 H   0  0  0  0  0  0
   -4.0999    2.0170   -1.9248 H   0  0  0  0  0  0
    1.1286   -1.9754    0.1337 H   0  0  0  0  0  0
    2.7134   -1.3519    0.5258 H   0  0  0  0  0  0
   -2.1801    4.3907   -2.0160 H   0  0  0  0  0  0
   -3.2728    3.9074   -3.3095 H   0  0  0  0  0  0
   -1.9582    2.8505   -2.8392 H   0  0  0  0  0  0
   -4.3759    4.6705   -0.4293 H   0  0  0  0  0  0
   -5.5332    3.3399   -0.4283 H   0  0  0  0  0  0
   -5.2573    4.2492   -1.8934 H   0  0  0  0  0  0
   -2.1466    0.5050    1.9893 H   0  0  0  0  0  0
   -3.4784    1.0123    3.0152 H   0  0  0  0  0  0
   -2.2604    2.1792    2.5253 H   0  0  0  0  0  0
   -3.8630   -0.3541    0.1197 H   0  0  0  0  0  0
   -5.1944    0.7100   -0.3247 H   0  0  0  0  0  0
   -5.1078    0.0510    1.2957 H   0  0  0  0  0  0
    1.6427    0.2876    2.1194 H   0  0  0  0  0  0
    0.0927   -0.4532    1.7954 H   0  0  0  0  0  0
    0.9542   -2.6503    2.6308 H   0  0  0  0  0  0
    2.5024   -1.9171    2.9684 H   0  0  0  0  0  0
    1.1327   -2.0607    5.0403 H   0  0  0  0  0  0
   -0.1468   -1.1100    4.2918 H   0  0  0  0  0  0
    1.4170   -0.3712    4.6339 H   0  0  0  0  0  0
  1  5  1  0  0  0
  1  9  1  0  0  0
  1 14  2  0  0  0
  2  7  1  0  0  0
  2 10  1  0  0  0
  2 15  2  0  0  0
  3  4  2  0  0  0
  3  6  1  0  0  0
  4 17  1  0  0  0
  4  8  1  0  0  0
  5 13  1  0  0  0
  5 16  2  0  0  0
  6 12  2  0  0  0
  7  9  1  0  0  0
  7 28  1  0  0  0
  8 12  1  0  0  0
  9 20  1  0  0  0
  9 29  1  0  0  0
 10 11  1  0  0  0
 11 18  1  0  0  0
 11 19  1  0  0  0
 11 30  1  0  0  0
 12 31  1  0  0  0
 13 17  1  0  0  0
 13 32  1  0  0  0
 17 33  1  0  0  0
 17 34  1  0  0  0
 18 23  1  0  0  0
 18 24  1  0  0  0
 18 35  1  0  0  0
 19 21  1  0  0  0
 19 22  1  0  0  0
 19 36  1  0  0  0
 20 25  1  0  0  0
 20 37  1  0  0  0
 20 38  1  0  0  0
 21 39  1  0  0  0
 21 40  1  0  0  0
 21 41  1  0  0  0
 22 42  1  0  0  0
 22 43  1  0  0  0
 22 44  1  0  0  0
 23 45  1  0  0  0
 23 46  1  0  0  0
 23 47  1  0  0  0
 24 48  1  0  0  0
 24 49  1  0  0  0
 24 50  1  0  0  0
 25 26  1  0  0  0
 25 51  1  0  0  0
 25 52  1  0  0  0
 26 27  1  0  0  0
 26 53  1  0  0  0
 26 54  1  0  0  0
 27 55  1  0  0  0
 27 56  1  0  0  0
 27 57  1  0  0  0
M  END
> <chembl_id>
CHEMBL445898

> <chembl_pref_name>
None

> <i_m_ct_stereo_status>
1

> <s_m_source_file>
sdf/inactives_sanitized.sdf

> <i_m_source_file_index>
146

> <i_lp_mmshare_version>
49012

> <i_f3d_flags>
0

> <s_epik_input>
W0NIM11bQ0hdKFtDSDNdKVtDSF0oW0NIXShbQ0gzXSlbQ0gzXSlPQyg9TylbTkhdW0NAQEhdKFtDSDJdW0NIMl1bQ0gyXVtDSDNdKUMoPU8pQyg9TylbTkhdW0NIMl1jMW5uW2NIXW8x

> <s_epik_cmdline>
J2VwaWtfcHl0aG9uJywgJy1waHQnLCAnMC41JywgJy1waCcsICc3LjUnLCAnLW50JywgJy1tYScsICcyMDAnLCAnLWltYWUnLCAnPGluZmlsZS5tYWU+JywgJy1vbWFlJywgJzxvdXRmaWxlLm1hZT4n

> <r_lp_tautomer_probability>
1

> <r_epik_Ionization_Penalty>
  0.0000

> <r_epik_Ionization_Penalty_Charging>
  0.0000

> <r_epik_Ionization_Penalty_Neutral>
  0.0000

> <r_epik_State_Penalty>
 -0.0000

> <r_epik_Charging_Adjusted_Penalty>
0

> <i_epik_Tot_Q>
0

> <i_epik_Tot_abs_Q>
0

> <s_epik_Chemistry_Notes>
This compound has an ester and may undergo hydrolysis at high or low pH.

> <s_lp_Force_Field>
OPLS3e

> <r_lp_Energy>
20.729411

> <b_lp_Chiralities_Consistent>
1

> <s_lp_Variant>
sdf/inactives_sanitized.sdf:146-1

$$$$
sdf/inactives_sanitized.sdf:147
                    3D
 Schrodinger Suite 2020-1.
 36 37  0  0  1  0            999 V2000
   -1.1524    3.5168   -1.2529 C   0  0  0  0  0  0
   -0.2523    2.2652   -1.2724 C   0  0  0  0  0  0
   -0.3840    1.4348    0.0303 C   0  0  2  0  0  0
   -0.1872    2.2960    1.3089 C   0  0  1  0  0  0
   -1.1316    3.5163    1.3016 C   0  0  0  0  0  0
   -0.8766    4.3363    0.0229 N   0  3  0  0  0  0
   -0.4079    1.5402    2.4827 O   0  0  0  0  0  0
    0.3313    0.1920    0.0029 O   0  0  0  0  0  0
    1.7136    0.0714   -0.0096 C   0  0  0  0  0  0
    2.6070    1.1550   -0.0423 C   0  0  0  0  0  0
    3.9825    0.9483   -0.0616 C   0  0  0  0  0  0
    4.4925   -0.3441   -0.0539 C   0  0  0  0  0  0
    3.6316   -1.4424   -0.0224 C   0  0  0  0  0  0
    2.2380   -1.2372    0.0014 C   0  0  0  0  0  0
    1.2902   -2.4368    0.0560 C   0  0  0  0  0  0
    4.2366   -2.8408   -0.0364 C   0  0  0  0  0  0
   -2.2153    3.2709   -1.2330 H   0  0  0  0  0  0
   -0.9560    4.1861   -2.0912 H   0  0  0  0  0  0
    0.7655    2.6018   -1.4534 H   0  0  0  0  0  0
   -0.5597    1.6557   -2.1232 H   0  0  0  0  0  0
   -1.4176    1.0843    0.0588 H   0  0  0  0  0  0
    0.8335    2.6650    1.3697 H   0  0  0  0  0  0
   -2.1890    3.2504    1.2490 H   0  0  0  0  0  0
   -0.9452    4.2092    2.1232 H   0  0  0  0  0  0
    0.0797    4.6629    0.0157 H   0  0  0  0  0  0
   -1.2476    1.0814    2.4028 H   0  0  0  0  0  0
    2.2739    2.1767   -0.0577 H   0  0  0  0  0  0
    4.6554    1.7927   -0.0866 H   0  0  0  0  0  0
    5.5633   -0.4879   -0.0742 H   0  0  0  0  0  0
    1.6828   -3.2162    0.7090 H   0  0  0  0  0  0
    1.1567   -2.8627   -0.9388 H   0  0  0  0  0  0
    0.3125   -2.1831    0.4657 H   0  0  0  0  0  0
    3.7443   -3.4616   -0.7857 H   0  0  0  0  0  0
    4.1093   -3.3223    0.9337 H   0  0  0  0  0  0
    5.2989   -2.8262   -0.2846 H   0  0  0  0  0  0
   -1.4698    5.1544    0.0272 H   0  0  0  0  0  0
  1  6  1  0  0  0
  1  2  1  0  0  0
  1 17  1  0  0  0
  1 18  1  0  0  0
  2  3  1  0  0  0
  2 19  1  0  0  0
  2 20  1  0  0  0
  3  8  1  0  0  0
  3  4  1  0  0  0
  3 21  1  0  0  0
  4  5  1  0  0  0
  4  7  1  0  0  0
  4 22  1  0  0  0
  5  6  1  0  0  0
  5 23  1  0  0  0
  5 24  1  0  0  0
  6 25  1  0  0  0
  6 36  1  0  0  0
  7 26  1  0  0  0
  8  9  1  0  0  0
  9 10  2  0  0  0
  9 14  1  0  0  0
 10 11  1  0  0  0
 10 27  1  0  0  0
 11 12  2  0  0  0
 11 28  1  0  0  0
 12 13  1  0  0  0
 12 29  1  0  0  0
 13 14  2  0  0  0
 13 16  1  0  0  0
 14 15  1  0  0  0
 15 30  1  0  0  0
 15 31  1  0  0  0
 15 32  1  0  0  0
 16 33  1  0  0  0
 16 34  1  0  0  0
 16 35  1  0  0  0
M  CHG  1   6   1
M  END
> <chembl_id>
CHEMBL230479

> <chembl_pref_name>
None

> <i_m_ct_stereo_status>
1

> <s_m_source_file>
sdf/inactives_sanitized.sdf

> <i_m_source_file_index>
147

> <i_lp_mmshare_version>
49012

> <i_f3d_flags>
0

> <s_epik_input>
W09IXVtDQEBIXTFbQ0gyXVtOSF1bQ0gyXVtDSDJdW0NASF0xT2MyW2NIXVtjSF1bY0hdYyhbQ0gzXSljMltDSDNd

> <s_epik_cmdline>
J2VwaWtfcHl0aG9uJywgJy1waHQnLCAnMC41JywgJy1waCcsICc3LjUnLCAnLW50JywgJy1tYScsICcyMDAnLCAnLWltYWUnLCAnPGluZmlsZS5tYWU+JywgJy1vbWFlJywgJzxvdXRmaWxlLm1hZT4n

> <r_lp_tautomer_probability>
1

> <r_epik_Ionization_Penalty>
  0.0358

> <r_epik_Ionization_Penalty_Charging>
  0.0358

> <r_epik_Ionization_Penalty_Neutral>
  0.0000

> <r_epik_State_Penalty>
  0.0299

> <r_epik_Charging_Adjusted_Penalty>
0.0657488310252012

> <i_epik_Tot_Q>
1

> <i_epik_Tot_abs_Q>
1

> <s_lp_Force_Field>
OPLS3e

> <r_lp_Energy>
25.114868

> <b_lp_Chiralities_Consistent>
1

> <s_lp_Variant>
sdf/inactives_sanitized.sdf:147-1

$$$$
sdf/inactives_sanitized.sdf:148
                    3D
 Schrodinger Suite 2020-1.
 62 65  0  0  1  0            999 V2000
   -1.9074    6.0253   -0.9091 N   0  0  0  0  0  0
   -2.4492    5.1301   -0.0354 C   0  0  0  0  0  0
   -3.6102    5.3957    0.7096 C   0  0  0  0  0  0
   -2.4968    7.2322   -1.0983 C   0  0  0  0  0  0
   -5.3221    7.2703    1.0223 N   0  0  0  0  0  0
   -5.3855    8.5061    0.4168 C   0  0  0  0  0  0
   -4.4213    8.7364   -0.4364 N   0  0  0  0  0  0
   -3.6652    7.5914   -0.4056 C   0  0  0  0  0  0
   -4.2061    6.6454    0.5029 C   0  0  0  0  0  0
   -1.8335    8.1056   -2.0549 C   0  0  0  0  0  0
   -1.3063    8.8005   -2.8156 N   0  0  0  0  0  0
   -1.7196    3.8317    0.0980 C   0  0  0  0  0  0
   -2.4149    2.6398    0.3418 C   0  0  0  0  0  0
   -1.7531    1.4103    0.4666 C   0  0  0  0  0  0
   -0.3547    1.3620    0.3419 C   0  0  0  0  0  0
    0.3490    2.5520    0.1050 C   0  0  0  0  0  0
   -0.3250    3.7640   -0.0161 C   0  0  0  0  0  0
   -2.5508    0.1268    0.7236 C   0  0  0  0  0  0
   -2.3412   -0.7392   -0.2691 F   0  0  0  0  0  0
   -2.1517   -0.4312    1.8671 F   0  0  0  0  0  0
   -3.8651    0.3429    0.8087 F   0  0  0  0  0  0
   -6.2464    6.7384    2.0086 C   0  0  0  0  0  0
    0.2653    0.1336    0.4763 O   0  0  0  0  0  0
    1.5936   -0.0394   -0.0120 C   0  0  0  0  0  0
    1.9226   -1.5396   -0.0696 C   0  0  0  0  0  0
    0.9222   -2.3378   -0.9332 C   0  0  0  0  0  0
    1.3142   -3.7384   -1.1347 N   0  0  1  0  0  0
    0.2007   -4.5937   -1.5649 C   0  0  0  0  0  0
   -0.2373   -4.2979   -3.0192 C   0  0  0  0  0  0
    0.9713   -4.5225   -3.9589 N   0  3  0  0  0  0
    2.1572   -3.6392   -3.4981 C   0  0  0  0  0  0
    2.4718   -3.9551   -2.0154 C   0  0  0  0  0  0
    0.5591   -4.2374   -5.4230 C   0  0  0  0  0  0
    1.6505   -4.6854   -6.4083 C   0  0  0  0  0  0
   -4.0203    4.6816    1.4086 H   0  0  0  0  0  0
   -6.1866    9.1871    0.6660 H   0  0  0  0  0  0
   -3.4914    2.6708    0.4231 H   0  0  0  0  0  0
    1.4249    2.5567    0.0181 H   0  0  0  0  0  0
    0.2520    4.6599   -0.1951 H   0  0  0  0  0  0
   -5.7027    6.5138    2.9268 H   0  0  0  0  0  0
   -6.6956    5.8221    1.6242 H   0  0  0  0  0  0
   -7.0324    7.4639    2.2228 H   0  0  0  0  0  0
    1.7020    0.3907   -1.0099 H   0  0  0  0  0  0
    2.2996    0.4698    0.6459 H   0  0  0  0  0  0
    2.9531   -1.6810   -0.3925 H   0  0  0  0  0  0
    1.8690   -1.9152    0.9535 H   0  0  0  0  0  0
   -0.0339   -2.3242   -0.4067 H   0  0  0  0  0  0
    0.7307   -1.8237   -1.8754 H   0  0  0  0  0  0
    0.4925   -5.6406   -1.4654 H   0  0  0  0  0  0
   -0.6454   -4.4586   -0.8893 H   0  0  0  0  0  0
   -1.0128   -4.9929   -3.3438 H   0  0  0  0  0  0
   -0.5900   -3.2752   -3.1651 H   0  0  0  0  0  0
    3.0063   -3.9009   -4.1283 H   0  0  0  0  0  0
    1.8885   -2.5963   -3.6743 H   0  0  0  0  0  0
    3.3211   -3.3586   -1.6854 H   0  0  0  0  0  0
    2.7963   -4.9927   -1.9197 H   0  0  0  0  0  0
   -0.3545   -4.8123   -5.5835 H   0  0  0  0  0  0
    0.3327   -3.1716   -5.4907 H   0  0  0  0  0  0
    1.2958   -4.5959   -7.4354 H   0  0  0  0  0  0
    1.9290   -5.7276   -6.2487 H   0  0  0  0  0  0
    2.5508   -4.0765   -6.3294 H   0  0  0  0  0  0
    1.2451   -5.4916   -3.8755 H   0  0  0  0  0  0
  1  4  2  0  0  0
  1  2  1  0  0  0
  2 12  1  0  0  0
  2  3  2  0  0  0
  3  9  1  0  0  0
  3 35  1  0  0  0
  4 10  1  0  0  0
  4  8  1  0  0  0
  5  6  1  0  0  0
  5  9  1  0  0  0
  5 22  1  0  0  0
  6  7  2  0  0  0
  6 36  1  0  0  0
  7  8  1  0  0  0
  8  9  2  0  0  0
 10 11  3  0  0  0
 12 17  1  0  0  0
 12 13  2  0  0  0
 13 14  1  0  0  0
 13 37  1  0  0  0
 14 18  1  0  0  0
 14 15  2  0  0  0
 15 23  1  0  0  0
 15 16  1  0  0  0
 16 17  2  0  0  0
 16 38  1  0  0  0
 17 39  1  0  0  0
 18 19  1  0  0  0
 18 20  1  0  0  0
 18 21  1  0  0  0
 22 40  1  0  0  0
 22 41  1  0  0  0
 22 42  1  0  0  0
 23 24  1  0  0  0
 24 25  1  0  0  0
 24 43  1  0  0  0
 24 44  1  0  0  0
 25 26  1  0  0  0
 25 45  1  0  0  0
 25 46  1  0  0  0
 26 27  1  0  0  0
 26 47  1  0  0  0
 26 48  1  0  0  0
 27 28  1  0  0  0
 27 32  1  0  0  0
 28 29  1  0  0  0
 28 49  1  0  0  0
 28 50  1  0  0  0
 29 30  1  0  0  0
 29 51  1  0  0  0
 29 52  1  0  0  0
 30 31  1  0  0  0
 30 33  1  0  0  0
 30 62  1  0  0  0
 31 32  1  0  0  0
 31 53  1  0  0  0
 31 54  1  0  0  0
 32 55  1  0  0  0
 32 56  1  0  0  0
 33 34  1  0  0  0
 33 57  1  0  0  0
 33 58  1  0  0  0
 34 59  1  0  0  0
 34 60  1  0  0  0
 34 61  1  0  0  0
M  CHG  1  30   1
M  END
> <chembl_id>
CHEMBL1209145

> <chembl_pref_name>
None

> <s_m_source_file>
sdf/inactives_sanitized.sdf

> <i_m_source_file_index>
148

> <i_lp_mmshare_version>
49012

> <i_m_ct_stereo_status>
1

> <i_f3d_flags>
0

> <s_epik_input>
bjFbY0hdbihbQ0gzXSljKGMxMilbY0hdYyhuYzJDI04pLWMzW2NIXWMoQyhGKShGKUYpYyhbY0hdW2NIXTMpT1tDSDJdW0NIMl1bQ0gyXU40W0NIMl1bQ0gyXU4oW0NIMl1bQ0gyXTQpW0NIMl1bQ0gzXQ==

> <s_epik_cmdline>
J2VwaWtfcHl0aG9uJywgJy1waHQnLCAnMC41JywgJy1waCcsICc3LjUnLCAnLW50JywgJy1tYScsICcyMDAnLCAnLWltYWUnLCAnPGluZmlsZS5tYWU+JywgJy1vbWFlJywgJzxvdXRmaWxlLm1hZT4n

> <r_lp_tautomer_probability>
1

> <r_epik_Ionization_Penalty>
  0.1360

> <r_epik_Ionization_Penalty_Charging>
  0.1358

> <r_epik_Ionization_Penalty_Neutral>
  0.0002

> <r_epik_State_Penalty>
  0.2752

> <r_epik_Charging_Adjusted_Penalty>
0.410925026512528

> <i_epik_Tot_Q>
1

> <i_epik_Tot_abs_Q>
1

> <s_lp_Force_Field>
OPLS3e

> <r_lp_Energy>
57.427663

> <b_lp_Chiralities_Consistent>
1

> <s_lp_Variant>
sdf/inactives_sanitized.sdf:148-1

$$$$
sdf/inactives_sanitized.sdf:149
                    3D
 Schrodinger Suite 2020-1.
 33 34  0  0  1  0            999 V2000
   -2.7208   -0.0739   -0.5346 N   0  0  0  0  0  0
   -2.1877   -1.2617   -0.1287 C   0  0  0  0  0  0
   -0.8101   -1.4103    0.0925 C   0  0  0  0  0  0
   -0.0012   -0.2839   -0.1020 C   0  0  0  0  0  0
   -0.5085    0.9162   -0.4959 N   0  0  0  0  0  0
   -1.8503    0.9555   -0.6940 C   0  0  0  0  0  0
   -2.4112    2.2261   -1.1193 C   0  0  0  0  0  0
   -2.8582    3.2384   -1.4583 N   0  0  0  0  0  0
   -3.1493   -2.3882    0.0387 C   0  0  0  0  0  0
    1.5035   -0.3407    0.1226 C   0  0  0  0  0  0
    2.3201   -0.1623   -1.1719 C   0  0  0  0  0  0
    3.8349   -0.2211   -0.9336 C   0  0  0  0  0  0
   -3.2612   -3.1195    1.2409 C   0  0  0  0  0  0
   -4.1722   -4.1927    1.3423 C   0  0  0  0  0  0
   -4.9657   -4.5183    0.2351 C   0  0  0  0  0  0
   -4.8668   -3.7956   -0.9479 C   0  0  0  0  0  0
   -3.9669   -2.7406   -1.0422 C   0  0  0  0  0  0
   -4.3132   -5.0063    2.6364 C   0  0  0  0  0  0
   -5.2118   -5.9880    2.5349 F   0  0  0  0  0  0
   -3.1423   -5.5600    2.9542 F   0  0  0  0  0  0
   -4.6946   -4.2088    3.6348 F   0  0  0  0  0  0
   -2.3004   -2.6707    2.6190 Cl  0  0  0  0  0  0
   -0.3898   -2.3571    0.3998 H   0  0  0  0  0  0
    1.7648   -1.2913    0.5910 H   0  0  0  0  0  0
    1.7732    0.4308    0.8461 H   0  0  0  0  0  0
    2.0415   -0.9353   -1.8895 H   0  0  0  0  0  0
    2.0732    0.7924   -1.6388 H   0  0  0  0  0  0
    4.3810   -0.0998   -1.8696 H   0  0  0  0  0  0
    4.1314   -1.1765   -0.4995 H   0  0  0  0  0  0
    4.1596    0.5699   -0.2567 H   0  0  0  0  0  0
   -5.6728   -5.3337    0.2804 H   0  0  0  0  0  0
   -5.4863   -4.0549   -1.7939 H   0  0  0  0  0  0
   -3.9001   -2.1953   -1.9729 H   0  0  0  0  0  0
  1  6  2  0  0  0
  1  2  1  0  0  0
  2  9  1  0  0  0
  2  3  2  0  0  0
  3  4  1  0  0  0
  3 23  1  0  0  0
  4  5  2  0  0  0
  4 10  1  0  0  0
  5  6  1  0  0  0
  6  7  1  0  0  0
  7  8  3  0  0  0
  9 13  2  0  0  0
  9 17  1  0  0  0
 10 11  1  0  0  0
 10 24  1  0  0  0
 10 25  1  0  0  0
 11 12  1  0  0  0
 11 26  1  0  0  0
 11 27  1  0  0  0
 12 28  1  0  0  0
 12 29  1  0  0  0
 12 30  1  0  0  0
 13 14  1  0  0  0
 13 22  1  0  0  0
 14 15  2  0  0  0
 14 18  1  0  0  0
 15 16  1  0  0  0
 15 31  1  0  0  0
 16 17  2  0  0  0
 16 32  1  0  0  0
 17 33  1  0  0  0
 18 19  1  0  0  0
 18 20  1  0  0  0
 18 21  1  0  0  0
M  END
> <chembl_id>
CHEMBL1079101

> <chembl_pref_name>
None

> <s_m_source_file>
sdf/inactives_sanitized.sdf

> <i_m_source_file_index>
149

> <i_lp_mmshare_version>
49012

> <i_m_ct_stereo_status>
1

> <i_f3d_flags>
0

> <s_epik_input>
W0NIM11bQ0gyXVtDSDJdYyhbY0hdMSluYyhDI04pbmMxLWMyYyhDbCljKEMoRikoRilGKVtjSF1bY0hdW2NIXTI=

> <s_epik_cmdline>
J2VwaWtfcHl0aG9uJywgJy1waHQnLCAnMC41JywgJy1waCcsICc3LjUnLCAnLW50JywgJy1tYScsICcyMDAnLCAnLWltYWUnLCAnPGluZmlsZS5tYWU+JywgJy1vbWFlJywgJzxvdXRmaWxlLm1hZT4n

> <r_lp_tautomer_probability>
1

> <r_epik_Ionization_Penalty>
  0.0000

> <r_epik_Ionization_Penalty_Charging>
  0.0000

> <r_epik_Ionization_Penalty_Neutral>
  0.0000

> <r_epik_State_Penalty>
 -0.0000

> <r_epik_Charging_Adjusted_Penalty>
0

> <i_epik_Tot_Q>
0

> <i_epik_Tot_abs_Q>
0

> <s_lp_Force_Field>
OPLS3e

> <r_lp_Energy>
29.148704

> <b_lp_Chiralities_Consistent>
1

> <s_lp_Variant>
sdf/inactives_sanitized.sdf:149-1

$$$$
sdf/inactives_sanitized.sdf:150
                    3D
 Schrodinger Suite 2020-1.
 51 54  0  0  1  0            999 V2000
    3.7636   -1.0077    0.0001 C   0  0  0  0  0  0
    4.4341   -2.3521    0.1879 C   0  0  0  0  0  0
    4.3441   -1.7507   -1.1900 C   0  0  0  0  0  0
   -3.4717   -0.6622   -0.6346 S   0  0  0  0  0  0
   -4.1847   -1.8270   -1.1705 O   0  0  0  0  0  0
   -2.9902   -0.6889    0.7520 O   0  0  0  0  0  0
   -2.0019   -0.2643   -1.7886 C   0  0  2  0  0  0
   -0.8132   -1.1458   -1.4225 C   0  0  0  0  0  0
   -0.0095   -0.3331   -0.3813 C   0  0  2  0  0  0
   -0.6114    1.0197   -0.3985 N   0  0  0  0  0  0
   -1.4810    1.1572   -1.5724 C   0  0  0  0  0  0
    1.4993   -0.2751   -0.7000 C   0  0  0  0  0  0
    2.3111   -0.9420    0.1373 N   0  0  0  0  0  0
    1.9042    0.2929   -1.7163 O   0  0  0  0  0  0
    4.4802    0.2021    0.4416 C   0  0  0  0  0  0
    5.0426    1.1519    0.7887 N   0  0  0  0  0  0
   -4.5691    0.7595   -0.7974 C   0  0  0  0  0  0
   -4.7367    1.6079    0.3047 C   0  0  0  0  0  0
   -5.5481    2.7373    0.2148 C   0  0  0  0  0  0
   -6.2034    3.0300   -0.9784 C   0  0  0  0  0  0
   -6.0471    2.1918   -2.0807 C   0  0  0  0  0  0
   -5.2339    1.0589   -2.0009 C   0  0  0  0  0  0
   -0.7115    1.7778    0.7308 C   0  0  0  0  0  0
   -0.2474    1.4031    1.8107 O   0  0  0  0  0  0
   -1.4002    3.1262    0.6720 C   0  0  0  0  0  0
   -2.1650    3.5554    1.7655 C   0  0  0  0  0  0
   -2.8012    4.7935    1.7406 C   0  0  0  0  0  0
   -2.6625    5.6181    0.6278 C   0  0  0  0  0  0
   -1.8840    5.2197   -0.4552 C   0  0  0  0  0  0
   -1.2477    3.9816   -0.4302 C   0  0  0  0  0  0
   -5.0793    0.0745   -3.4151 Cl  0  0  0  0  0  0
    5.4066   -2.3889    0.6798 H   0  0  0  0  0  0
    3.8206   -3.2251    0.4136 H   0  0  0  0  0  0
    5.2543   -1.3703   -1.6545 H   0  0  0  0  0  0
    3.6676   -2.2065   -1.9140 H   0  0  0  0  0  0
   -2.3767   -0.4352   -2.7971 H   0  0  0  0  0  0
   -1.1211   -2.1248   -1.0533 H   0  0  0  0  0  0
   -0.2531   -1.3208   -2.3438 H   0  0  0  0  0  0
   -0.0898   -0.7774    0.6131 H   0  0  0  0  0  0
   -2.2719    1.9048   -1.5282 H   0  0  0  0  0  0
   -0.8267    1.3834   -2.4156 H   0  0  0  0  0  0
    1.9235   -1.3108    0.9935 H   0  0  0  0  0  0
   -4.2334    1.4064    1.2386 H   0  0  0  0  0  0
   -5.6652    3.3870    1.0697 H   0  0  0  0  0  0
   -6.8315    3.9059   -1.0496 H   0  0  0  0  0  0
   -6.5583    2.4265   -3.0029 H   0  0  0  0  0  0
   -2.2840    2.9263    2.6367 H   0  0  0  0  0  0
   -3.3995    5.1124    2.5813 H   0  0  0  0  0  0
   -3.1557    6.5787    0.6086 H   0  0  0  0  0  0
   -1.7690    5.8708   -1.3092 H   0  0  0  0  0  0
   -0.6314    3.6998   -1.2719 H   0  0  0  0  0  0
  1  2  1  0  0  0
  1  3  1  0  0  0
  1 13  1  0  0  0
  1 15  1  0  0  0
  2  3  1  0  0  0
  2 32  1  0  0  0
  2 33  1  0  0  0
  3 34  1  0  0  0
  3 35  1  0  0  0
  4  5  2  0  0  0
  4  6  2  0  0  0
  4  7  1  0  0  0
  4 17  1  0  0  0
  7  8  1  0  0  0
  7 11  1  0  0  0
  7 36  1  0  0  0
  8  9  1  0  0  0
  8 37  1  0  0  0
  8 38  1  0  0  0
  9 10  1  0  0  0
  9 12  1  0  0  0
  9 39  1  0  0  0
 10 11  1  0  0  0
 10 23  1  0  0  0
 11 40  1  0  0  0
 11 41  1  0  0  0
 12 13  1  0  0  0
 12 14  2  0  0  0
 13 42  1  0  0  0
 15 16  3  0  0  0
 17 18  2  0  0  0
 17 22  1  0  0  0
 18 19  1  0  0  0
 18 43  1  0  0  0
 19 20  2  0  0  0
 19 44  1  0  0  0
 20 21  1  0  0  0
 20 45  1  0  0  0
 21 22  2  0  0  0
 21 46  1  0  0  0
 22 31  1  0  0  0
 23 24  2  0  0  0
 23 25  1  0  0  0
 25 26  2  0  0  0
 25 30  1  0  0  0
 26 27  1  0  0  0
 26 47  1  0  0  0
 27 28  2  0  0  0
 27 48  1  0  0  0
 28 29  1  0  0  0
 28 49  1  0  0  0
 29 30  2  0  0  0
 29 50  1  0  0  0
 30 51  1  0  0  0
M  END
> <chembl_id>
CHEMBL3093934

> <chembl_pref_name>
None

> <i_m_ct_stereo_status>
1

> <s_m_source_file>
sdf/inactives_sanitized.sdf

> <i_m_source_file_index>
150

> <i_lp_mmshare_version>
49012

> <i_f3d_flags>
0

> <s_epik_input>
W2NIXTFbY0hdW2NIXVtjSF1bY0hdYzFDKD1PKU4oW0NIMl0yKVtDQEhdKEMoPU8pW05IXUMzKEMjTilbQ0gyXVtDSDJdMylbQ0gyXVtDQEhdMlMoPU8pKD1PKWM0W2NIXVtjSF1bY0hdW2NIXWM0Q2w=

> <s_epik_cmdline>
J2VwaWtfcHl0aG9uJywgJy1waHQnLCAnMC41JywgJy1waCcsICc3LjUnLCAnLW50JywgJy1tYScsICcyMDAnLCAnLWltYWUnLCAnPGluZmlsZS5tYWU+JywgJy1vbWFlJywgJzxvdXRmaWxlLm1hZT4n

> <r_lp_tautomer_probability>
1

> <r_epik_Ionization_Penalty>
  0.0000

> <r_epik_Ionization_Penalty_Charging>
  0.0000

> <r_epik_Ionization_Penalty_Neutral>
  0.0000

> <r_epik_State_Penalty>
 -0.0000

> <r_epik_Charging_Adjusted_Penalty>
0

> <i_epik_Tot_Q>
0

> <i_epik_Tot_abs_Q>
0

> <s_lp_Force_Field>
OPLS3e

> <r_lp_Energy>
27.377541

> <b_lp_Chiralities_Consistent>
1

> <s_lp_Variant>
sdf/inactives_sanitized.sdf:150-1

$$$$
sdf/inactives_sanitized.sdf:151
                    3D
 Schrodinger Suite 2020-1.
 51 54  0  0  1  0            999 V2000
    3.6592   -0.3596    1.5624 C   0  0  0  0  0  0
    4.2394   -1.7068    1.9374 C   0  0  0  0  0  0
    4.6187   -1.0714    0.6255 C   0  0  0  0  0  0
   -1.5666    0.5650   -3.7286 S   0  0  0  0  0  0
   -2.8582    0.3064   -3.0808 O   0  0  0  0  0  0
   -1.4455    1.6311   -4.7297 O   0  0  0  0  0  0
   -0.2572    0.8509   -2.3880 C   0  0  2  0  0  0
   -0.1477   -0.3041   -1.4009 C   0  0  0  0  0  0
    0.2400    0.3416   -0.0679 C   0  0  2  0  0  0
   -0.3350    1.6979   -0.1704 N   0  0  0  0  0  0
   -0.5270    2.1207   -1.5697 C   0  0  0  0  0  0
    1.7677    0.4026    0.1522 C   0  0  0  0  0  0
    2.2475   -0.2990    1.1927 N   0  0  0  0  0  0
    2.4934    1.0164   -0.6330 O   0  0  0  0  0  0
    4.1695    0.8403    2.2496 C   0  0  0  0  0  0
    4.5703    1.7824    2.7891 N   0  0  0  0  0  0
   -1.0355   -0.9590   -4.5076 C   0  0  0  0  0  0
   -0.0752   -0.9172   -5.5214 C   0  0  0  0  0  0
    0.3482   -2.0999   -6.1221 C   0  0  0  0  0  0
   -0.1893   -3.3166   -5.7060 C   0  0  0  0  0  0
   -1.1460   -3.3625   -4.6937 C   0  0  0  0  0  0
   -1.5706   -2.1810   -4.0915 C   0  0  0  0  0  0
   -0.9116    2.3141    0.8998 C   0  0  0  0  0  0
   -0.9533    1.7887    2.0155 O   0  0  0  0  0  0
   -1.5245    3.6875    0.7309 C   0  0  0  0  0  0
   -0.8606    4.7020    0.0253 C   0  0  0  0  0  0
   -1.4307    5.9671   -0.0909 C   0  0  0  0  0  0
   -2.6607    6.2280    0.5068 C   0  0  0  0  0  0
   -3.3223    5.2369    1.2266 C   0  0  0  0  0  0
   -2.7520    3.9721    1.3440 C   0  0  0  0  0  0
    4.9863   -1.7539    2.7304 H   0  0  0  0  0  0
    3.5953   -2.5867    1.9200 H   0  0  0  0  0  0
    5.6287   -0.6775    0.5084 H   0  0  0  0  0  0
    4.2353   -1.5116   -0.2958 H   0  0  0  0  0  0
    0.6786    0.9632   -2.9371 H   0  0  0  0  0  0
   -1.1213   -0.7763   -1.2619 H   0  0  0  0  0  0
    0.5155   -1.1102   -1.7203 H   0  0  0  0  0  0
   -0.1690   -0.2059    0.7837 H   0  0  0  0  0  0
   -1.5617    2.4173   -1.7499 H   0  0  0  0  0  0
    0.1789    2.8812   -1.9042 H   0  0  0  0  0  0
    1.5925   -0.6974    1.8497 H   0  0  0  0  0  0
    0.3446    0.0250   -5.8428 H   0  0  0  0  0  0
    1.0899   -2.0740   -6.9068 H   0  0  0  0  0  0
    0.1396   -4.2335   -6.1728 H   0  0  0  0  0  0
   -1.5560   -4.3103   -4.3770 H   0  0  0  0  0  0
   -2.3091   -2.2204   -3.3041 H   0  0  0  0  0  0
    0.1077    4.5274   -0.4208 H   0  0  0  0  0  0
   -0.9168    6.7456   -0.6355 H   0  0  0  0  0  0
   -3.1015    7.2102    0.4188 H   0  0  0  0  0  0
   -4.2722    5.4490    1.6950 H   0  0  0  0  0  0
   -3.2754    3.2134    1.9091 H   0  0  0  0  0  0
  1  2  1  0  0  0
  1  3  1  0  0  0
  1 13  1  0  0  0
  1 15  1  0  0  0
  2  3  1  0  0  0
  2 31  1  0  0  0
  2 32  1  0  0  0
  3 33  1  0  0  0
  3 34  1  0  0  0
  4  5  2  0  0  0
  4  6  2  0  0  0
  4  7  1  0  0  0
  4 17  1  0  0  0
  7  8  1  0  0  0
  7 11  1  0  0  0
  7 35  1  0  0  0
  8  9  1  0  0  0
  8 36  1  0  0  0
  8 37  1  0  0  0
  9 10  1  0  0  0
  9 12  1  0  0  0
  9 38  1  0  0  0
 10 11  1  0  0  0
 10 23  1  0  0  0
 11 39  1  0  0  0
 11 40  1  0  0  0
 12 13  1  0  0  0
 12 14  2  0  0  0
 13 41  1  0  0  0
 15 16  3  0  0  0
 17 18  2  0  0  0
 17 22  1  0  0  0
 18 19  1  0  0  0
 18 42  1  0  0  0
 19 20  2  0  0  0
 19 43  1  0  0  0
 20 21  1  0  0  0
 20 44  1  0  0  0
 21 22  2  0  0  0
 21 45  1  0  0  0
 22 46  1  0  0  0
 23 24  2  0  0  0
 23 25  1  0  0  0
 25 26  2  0  0  0
 25 30  1  0  0  0
 26 27  1  0  0  0
 26 47  1  0  0  0
 27 28  2  0  0  0
 27 48  1  0  0  0
 28 29  1  0  0  0
 28 49  1  0  0  0
 29 30  2  0  0  0
 29 50  1  0  0  0
 30 51  1  0  0  0
M  END
> <chembl_id>
CHEMBL3093933

> <chembl_pref_name>
None

> <i_m_ct_stereo_status>
1

> <s_m_source_file>
sdf/inactives_sanitized.sdf

> <i_m_source_file_index>
151

> <i_lp_mmshare_version>
49012

> <i_f3d_flags>
0

> <s_epik_input>
W2NIXTFbY0hdW2NIXVtjSF1bY0hdYzFDKD1PKU4oW0NIMl0yKVtDQEhdKEMoPU8pW05IXUMzKEMjTilbQ0gyXVtDSDJdMylbQ0gyXVtDQEhdMlMoPU8pKD1PKWM0W2NIXVtjSF1bY0hdW2NIXVtjSF00

> <s_epik_cmdline>
J2VwaWtfcHl0aG9uJywgJy1waHQnLCAnMC41JywgJy1waCcsICc3LjUnLCAnLW50JywgJy1tYScsICcyMDAnLCAnLWltYWUnLCAnPGluZmlsZS5tYWU+JywgJy1vbWFlJywgJzxvdXRmaWxlLm1hZT4n

> <r_lp_tautomer_probability>
1

> <r_epik_Ionization_Penalty>
  0.0000

> <r_epik_Ionization_Penalty_Charging>
  0.0000

> <r_epik_Ionization_Penalty_Neutral>
  0.0000

> <r_epik_State_Penalty>
 -0.0000

> <r_epik_Charging_Adjusted_Penalty>
0

> <i_epik_Tot_Q>
0

> <i_epik_Tot_abs_Q>
0

> <s_lp_Force_Field>
OPLS3e

> <r_lp_Energy>
31.152557

> <b_lp_Chiralities_Consistent>
1

> <s_lp_Variant>
sdf/inactives_sanitized.sdf:151-1

$$$$
sdf/inactives_sanitized.sdf:152
                    3D
 Schrodinger Suite 2020-1.
 35 34  0  0  1  0            999 V2000
   -1.2969   -1.6683   -1.0668 C   0  0  0  0  0  0
    1.7797   -2.2632    1.1808 C   0  0  0  0  0  0
   -0.7036   -0.4174   -1.1842 N   0  0  0  0  0  0
   -1.7513   -2.0476   -2.2914 O   0  0  0  0  0  0
    1.8800   -1.5119    0.0198 N   0  0  0  0  0  0
   -1.3892   -2.3386   -0.0368 O   0  0  0  0  0  0
    1.4176   -1.8505    2.2854 O   0  0  0  0  0  0
   -2.3892   -3.3037   -2.5910 C   0  0  0  0  0  0
   -0.0025    0.1884   -0.0441 C   0  0  2  0  0  0
   -0.6005    2.4047    0.6753 O   0  0  0  0  0  0
   -0.2447    1.6654   -0.2409 C   0  0  0  0  0  0
    1.5258   -0.0932   -0.0409 C   0  0  0  0  0  0
    2.1339   -3.5338    0.9083 O   0  0  0  0  0  0
   -3.7191   -3.4625   -1.8129 C   0  0  0  0  0  0
   -1.4400   -4.4974   -2.3173 C   0  0  0  0  0  0
   -2.6901   -3.2303   -4.1020 C   0  0  0  0  0  0
    2.0947   -4.5305    1.9195 C   0  0  0  0  0  0
   -0.5289   -0.0484   -2.1074 H   0  0  0  0  0  0
    2.1953   -1.9675   -0.8240 H   0  0  0  0  0  0
   -0.4299   -0.1176    0.9145 H   0  0  0  0  0  0
   -0.0455    2.0502   -1.2421 H   0  0  0  0  0  0
    2.0121    0.4344    0.7832 H   0  0  0  0  0  0
    1.9829    0.2964   -0.9527 H   0  0  0  0  0  0
   -4.2676   -4.3464   -2.1404 H   0  0  0  0  0  0
   -4.3698   -2.5998   -1.9615 H   0  0  0  0  0  0
   -3.5604   -3.5642   -0.7395 H   0  0  0  0  0  0
   -1.2286   -4.6229   -1.2554 H   0  0  0  0  0  0
   -0.4820   -4.3648   -2.8217 H   0  0  0  0  0  0
   -1.8696   -5.4353   -2.6717 H   0  0  0  0  0  0
   -3.1827   -4.1359   -4.4588 H   0  0  0  0  0  0
   -1.7773   -3.1020   -4.6861 H   0  0  0  0  0  0
   -3.3425   -2.3884   -4.3392 H   0  0  0  0  0  0
    2.3876   -5.4932    1.5009 H   0  0  0  0  0  0
    1.0897   -4.6318    2.3324 H   0  0  0  0  0  0
    2.7813   -4.2898    2.7324 H   0  0  0  0  0  0
  1  3  1  0  0  0
  1  4  1  0  0  0
  1  6  2  0  0  0
  2  5  1  0  0  0
  2  7  2  0  0  0
  2 13  1  0  0  0
  3  9  1  0  0  0
  3 18  1  0  0  0
  4  8  1  0  0  0
  5 12  1  0  0  0
  5 19  1  0  0  0
  8 14  1  0  0  0
  8 15  1  0  0  0
  8 16  1  0  0  0
  9 11  1  0  0  0
  9 12  1  0  0  0
  9 20  1  0  0  0
 10 11  2  0  0  0
 11 21  1  0  0  0
 12 22  1  0  0  0
 12 23  1  0  0  0
 13 17  1  0  0  0
 14 24  1  0  0  0
 14 25  1  0  0  0
 14 26  1  0  0  0
 15 27  1  0  0  0
 15 28  1  0  0  0
 15 29  1  0  0  0
 16 30  1  0  0  0
 16 31  1  0  0  0
 16 32  1  0  0  0
 17 33  1  0  0  0
 17 34  1  0  0  0
 17 35  1  0  0  0
M  END
> <chembl_id>
CHEMBL318817

> <chembl_pref_name>
None

> <i_m_ct_stereo_status>
1

> <s_m_source_file>
sdf/inactives_sanitized.sdf

> <i_m_source_file_index>
152

> <i_lp_mmshare_version>
49012

> <i_f3d_flags>
0

> <s_epik_input>
W0NIM11DKFtDSDNdKShbQ0gzXSlPQyg9TylbTkhdW0NASF0oW0NIXT1PKVtDSDJdW05IXUMoPU8pT1tDSDNd

> <s_epik_cmdline>
J2VwaWtfcHl0aG9uJywgJy1waHQnLCAnMC41JywgJy1waCcsICc3LjUnLCAnLW50JywgJy1tYScsICcyMDAnLCAnLWltYWUnLCAnPGluZmlsZS5tYWU+JywgJy1vbWFlJywgJzxvdXRmaWxlLm1hZT4n

> <r_lp_tautomer_probability>
0.99990000499975

> <r_epik_Ionization_Penalty>
  0.0179

> <r_epik_Ionization_Penalty_Charging>
  0.0000

> <r_epik_Ionization_Penalty_Neutral>
  0.0179

> <r_epik_State_Penalty>
  0.0142

> <r_epik_Charging_Adjusted_Penalty>
0.0142407185028279

> <i_epik_Tot_Q>
0

> <i_epik_Tot_abs_Q>
0

> <s_epik_Chemistry_Notes>
This compound has an ester and may undergo hydrolysis at high or low pH.

> <s_lp_Force_Field>
OPLS3e

> <r_lp_Energy>
2.881682

> <b_lp_Chiralities_Consistent>
1

> <s_lp_Variant>
sdf/inactives_sanitized.sdf:152-1

$$$$
sdf/inactives_sanitized.sdf:153
                    3D
 Schrodinger Suite 2020-1.
 31 32  0  0  1  0            999 V2000
   -0.6301    1.2566   -0.0596 C   0  0  0  0  0  0
    0.0355    0.0441    0.0250 N   0  0  0  0  0  0
   -0.5246   -1.2191    0.1865 C   0  0  0  0  0  0
   -1.9118   -1.1828    0.0932 N   0  0  0  0  0  0
   -2.6855   -0.0217    0.1616 N   0  0  0  0  0  0
   -2.0807    1.1017    0.0617 C   0  0  0  0  0  0
    0.1290   -2.2557    0.3498 O   0  0  0  0  0  0
   -2.9080    2.2897    0.0798 C   0  0  0  0  0  0
   -3.6040    3.2148    0.0923 N   0  0  0  0  0  0
   -0.0895    2.3552   -0.2128 O   0  0  0  0  0  0
    1.5163    0.1026   -0.0473 C   0  0  0  0  0  0
    2.0616   -0.0550   -1.4773 C   0  0  0  0  0  0
   -2.6680   -2.3832    0.0525 C   0  0  0  0  0  0
   -3.7351   -2.5841    0.9423 C   0  0  0  0  0  0
   -4.4835   -3.7586    0.8949 C   0  0  0  0  0  0
   -4.1798   -4.7447   -0.0419 C   0  0  0  0  0  0
   -3.1241   -4.5664   -0.9433 C   0  0  0  0  0  0
   -2.3764   -3.3835   -0.8902 C   0  0  0  0  0  0
   -2.7930   -5.6464   -1.9723 C   0  0  0  0  0  0
   -1.4937   -5.6488   -2.2763 F   0  0  0  0  0  0
   -3.1131   -6.8619   -1.5245 F   0  0  0  0  0  0
   -3.4872   -5.4092   -3.0850 F   0  0  0  0  0  0
    1.8900    1.0388    0.3715 H   0  0  0  0  0  0
    1.9640   -0.6626    0.5894 H   0  0  0  0  0  0
    3.1506   -0.0089   -1.4773 H   0  0  0  0  0  0
    1.7021    0.7407   -2.1307 H   0  0  0  0  0  0
    1.7765   -1.0142   -1.9105 H   0  0  0  0  0  0
   -3.9848   -1.8348    1.6798 H   0  0  0  0  0  0
   -5.3010   -3.9049    1.5854 H   0  0  0  0  0  0
   -4.7734   -5.6471   -0.0659 H   0  0  0  0  0  0
   -1.5682   -3.2358   -1.5926 H   0  0  0  0  0  0
  1  6  1  0  0  0
  1  2  1  0  0  0
  1 10  2  0  0  0
  2 11  1  0  0  0
  2  3  1  0  0  0
  3  7  2  0  0  0
  3  4  1  0  0  0
  4 13  1  0  0  0
  4  5  1  0  0  0
  5  6  2  0  0  0
  6  8  1  0  0  0
  8  9  3  0  0  0
 11 12  1  0  0  0
 11 23  1  0  0  0
 11 24  1  0  0  0
 12 25  1  0  0  0
 12 26  1  0  0  0
 12 27  1  0  0  0
 13 14  2  0  0  0
 13 18  1  0  0  0
 14 15  1  0  0  0
 14 28  1  0  0  0
 15 16  2  0  0  0
 15 29  1  0  0  0
 16 17  1  0  0  0
 16 30  1  0  0  0
 17 18  2  0  0  0
 17 19  1  0  0  0
 18 31  1  0  0  0
 19 20  1  0  0  0
 19 21  1  0  0  0
 19 22  1  0  0  0
M  END
> <chembl_id>
CHEMBL1078995

> <chembl_pref_name>
None

> <s_m_source_file>
sdf/inactives_sanitized.sdf

> <i_m_source_file_index>
153

> <i_lp_mmshare_version>
49012

> <i_m_ct_stereo_status>
1

> <i_f3d_flags>
0

> <s_epik_input>
TiNDYzFubihjKD1PKW4oYzE9TylbQ0gyXVtDSDNdKS1jMltjSF1bY0hdW2NIXWMoW2NIXTIpQyhGKShGKUY=

> <s_epik_cmdline>
J2VwaWtfcHl0aG9uJywgJy1waHQnLCAnMC41JywgJy1waCcsICc3LjUnLCAnLW50JywgJy1tYScsICcyMDAnLCAnLWltYWUnLCAnPGluZmlsZS5tYWU+JywgJy1vbWFlJywgJzxvdXRmaWxlLm1hZT4n

> <r_lp_tautomer_probability>
1

> <r_epik_Ionization_Penalty>
  0.0000

> <r_epik_Ionization_Penalty_Charging>
  0.0000

> <r_epik_Ionization_Penalty_Neutral>
  0.0000

> <r_epik_State_Penalty>
 -0.0000

> <r_epik_Charging_Adjusted_Penalty>
7.16203211363531e-13

> <i_epik_Tot_Q>
0

> <i_epik_Tot_abs_Q>
0

> <s_lp_Force_Field>
OPLS3e

> <r_lp_Energy>
54.877355

> <b_lp_Chiralities_Consistent>
1

> <s_lp_Variant>
sdf/inactives_sanitized.sdf:153-1

$$$$
sdf/inactives_sanitized.sdf:154
                    3D
 Schrodinger Suite 2020-1.
 40 41  0  0  1  0            999 V2000
   -4.9971    1.3155    1.8768 C   0  0  0  0  0  0
   -4.3249    2.5289    2.0058 C   0  0  0  0  0  0
   -2.9554    2.5876    1.7618 C   0  0  0  0  0  0
   -2.2636    1.4340    1.3891 C   0  0  0  0  0  0
   -2.9418    0.2174    1.2623 C   0  0  0  0  0  0
   -4.3116    0.1603    1.5072 C   0  0  0  0  0  0
   -0.5210    1.5602    1.0850 S   0  0  0  0  0  0
    0.1125   -0.0664    0.5715 C   0  0  0  0  0  0
    1.6310   -0.1367    0.2551 C   0  0  1  0  0  0
    2.1332   -1.5850   -0.0666 C   0  0  1  0  0  0
    3.6552   -1.6176   -0.3742 C   0  0  0  0  0  0
    4.0033   -0.6519   -1.5247 C   0  0  0  0  0  0
    3.5112    0.7798   -1.2424 C   0  0  0  0  0  0
    2.0058    0.8012   -0.9223 C   0  0  0  0  0  0
    1.8699   -2.5582    1.1067 C   0  0  0  0  0  0
    2.2495   -2.2785    2.2451 O   0  0  0  0  0  0
    1.2021   -3.6895    0.8203 N   0  0  0  0  0  0
    0.7940   -4.6804    1.8119 C   0  0  0  0  0  0
   -0.2340   -4.1658    2.7340 C   0  0  0  0  0  0
   -1.0418   -3.7609    3.4568 N   0  0  0  0  0  0
   -6.0595    1.2695    2.0657 H   0  0  0  0  0  0
   -4.8630    3.4198    2.2943 H   0  0  0  0  0  0
   -2.4346    3.5287    1.8619 H   0  0  0  0  0  0
   -2.4287   -0.6876    0.9775 H   0  0  0  0  0  0
   -4.8406   -0.7764    1.4116 H   0  0  0  0  0  0
   -0.1348   -0.7535    1.3804 H   0  0  0  0  0  0
   -0.4570   -0.3954   -0.2985 H   0  0  0  0  0  0
    2.1719    0.2123    1.1378 H   0  0  0  0  0  0
    1.5802   -1.9721   -0.9257 H   0  0  0  0  0  0
    4.2382   -1.2756    0.4839 H   0  0  0  0  0  0
    3.9752   -2.6101   -0.6973 H   0  0  0  0  0  0
    5.0812   -0.6455   -1.6908 H   0  0  0  0  0  0
    3.5567   -1.0129   -2.4527 H   0  0  0  0  0  0
    4.0696    1.2017   -0.4053 H   0  0  0  0  0  0
    3.7176    1.4199   -2.1012 H   0  0  0  0  0  0
    1.4358    0.5182   -1.8089 H   0  0  0  0  0  0
    1.6953    1.8244   -0.7090 H   0  0  0  0  0  0
    0.8822   -3.8398   -0.1254 H   0  0  0  0  0  0
    0.3820   -5.5486    1.2976 H   0  0  0  0  0  0
    1.6504   -5.0273    2.3925 H   0  0  0  0  0  0
  1  6  2  0  0  0
  1  2  1  0  0  0
  1 21  1  0  0  0
  2  3  2  0  0  0
  2 22  1  0  0  0
  3  4  1  0  0  0
  3 23  1  0  0  0
  4  5  2  0  0  0
  4  7  1  0  0  0
  5  6  1  0  0  0
  5 24  1  0  0  0
  6 25  1  0  0  0
  7  8  1  0  0  0
  8  9  1  0  0  0
  8 26  1  0  0  0
  8 27  1  0  0  0
  9 14  1  0  0  0
  9 10  1  0  0  0
  9 28  1  0  0  0
 10 11  1  0  0  0
 10 15  1  0  0  0
 10 29  1  0  0  0
 11 12  1  0  0  0
 11 30  1  0  0  0
 11 31  1  0  0  0
 12 13  1  0  0  0
 12 32  1  0  0  0
 12 33  1  0  0  0
 13 14  1  0  0  0
 13 34  1  0  0  0
 13 35  1  0  0  0
 14 36  1  0  0  0
 14 37  1  0  0  0
 15 16  2  0  0  0
 15 17  1  0  0  0
 17 18  1  0  0  0
 17 38  1  0  0  0
 18 19  1  0  0  0
 18 39  1  0  0  0
 18 40  1  0  0  0
 19 20  3  0  0  0
M  END
> <chembl_id>
CHEMBL200993

> <chembl_pref_name>
None

> <i_m_ct_stereo_status>
1

> <s_m_source_file>
sdf/inactives_sanitized.sdf

> <i_m_source_file_index>
154

> <i_lp_mmshare_version>
49012

> <i_f3d_flags>
0

> <s_epik_input>
W2NIXTFbY0hdW2NIXVtjSF1bY0hdYzFTW0NIMl1bQ0BIXTJbQ0BASF0oW0NIMl1bQ0gyXVtDSDJdW0NIMl0yKUMoPU8pW05IXVtDSDJdQyNO

> <s_epik_cmdline>
J2VwaWtfcHl0aG9uJywgJy1waHQnLCAnMC41JywgJy1waCcsICc3LjUnLCAnLW50JywgJy1tYScsICcyMDAnLCAnLWltYWUnLCAnPGluZmlsZS5tYWU+JywgJy1vbWFlJywgJzxvdXRmaWxlLm1hZT4n

> <r_lp_tautomer_probability>
1

> <r_epik_Ionization_Penalty>
  0.0000

> <r_epik_Ionization_Penalty_Charging>
  0.0000

> <r_epik_Ionization_Penalty_Neutral>
  0.0000

> <r_epik_State_Penalty>
 -0.0000

> <r_epik_Charging_Adjusted_Penalty>
0

> <i_epik_Tot_Q>
0

> <i_epik_Tot_abs_Q>
0

> <s_lp_Force_Field>
OPLS3e

> <r_lp_Energy>
17.970388

> <b_lp_Chiralities_Consistent>
1

> <s_lp_Variant>
sdf/inactives_sanitized.sdf:154-1

$$$$
sdf/inactives_sanitized.sdf:155
                    3D
 Schrodinger Suite 2020-1.
 40 41  0  0  1  0            999 V2000
   -5.2212    0.3546   -0.0082 C   0  0  0  0  0  0
   -4.5445    0.4665    1.2076 C   0  0  0  0  0  0
   -3.1897    0.8017    1.2247 C   0  0  0  0  0  0
   -2.5139    1.0249    0.0234 C   0  0  0  0  0  0
   -3.1894    0.9133   -1.1934 C   0  0  0  0  0  0
   -4.5439    0.5776   -1.2082 C   0  0  0  0  0  0
   -0.8016    1.4411    0.0427 S   0  0  0  0  0  0
    0.0482   -0.1581   -0.0859 C   0  0  0  0  0  0
    1.5996   -0.1112   -0.0584 C   0  0  1  0  0  0
    2.2650   -1.5285   -0.0320 C   0  0  1  0  0  0
    3.8157   -1.4404   -0.0024 C   0  0  0  0  0  0
    4.3420   -0.6117   -1.1913 C   0  0  0  0  0  0
    3.6946    0.7845   -1.2514 C   0  0  0  0  0  0
    2.1586    0.6883   -1.2644 C   0  0  0  0  0  0
    1.8154   -2.3457    1.2023 C   0  0  0  0  0  0
    1.9711   -1.8938    2.3381 O   0  0  0  0  0  0
    1.2393   -3.5376    0.9667 N   0  0  0  0  0  0
    0.6818   -4.4038    2.0017 C   0  0  0  0  0  0
   -0.4988   -3.8143    2.6580 C   0  0  0  0  0  0
   -1.4262   -3.3511    3.1719 N   0  0  0  0  0  0
   -5.2017    0.2498    2.3692 F   0  0  0  0  0  0
   -6.2695    0.0950   -0.0210 H   0  0  0  0  0  0
   -2.6693    0.8852    2.1677 H   0  0  0  0  0  0
   -2.6686    1.0837   -2.1246 H   0  0  0  0  0  0
   -5.0682    0.4902   -2.1483 H   0  0  0  0  0  0
   -0.3314   -0.7624    0.7381 H   0  0  0  0  0  0
   -0.2917   -0.6487   -0.9988 H   0  0  0  0  0  0
    1.9011    0.4122    0.8519 H   0  0  0  0  0  0
    1.9511   -2.0908   -0.9146 H   0  0  0  0  0  0
    4.1648   -0.9216    0.8934 H   0  0  0  0  0  0
    4.2725   -2.4282   -0.0884 H   0  0  0  0  0  0
    5.4263   -0.5133   -1.1238 H   0  0  0  0  0  0
    4.1442   -1.1438   -2.1233 H   0  0  0  0  0  0
    4.0169    1.3766   -0.3935 H   0  0  0  0  0  0
    4.0415    1.3169   -2.1378 H   0  0  0  0  0  0
    1.8257    0.2251   -2.1948 H   0  0  0  0  0  0
    1.7324    1.6916   -1.2874 H   0  0  0  0  0  0
    1.0995   -3.8301    0.0106 H   0  0  0  0  0  0
    0.3785   -5.3478    1.5494 H   0  0  0  0  0  0
    1.4312   -4.6367    2.7600 H   0  0  0  0  0  0
  1  6  2  0  0  0
  1  2  1  0  0  0
  1 22  1  0  0  0
  2  3  2  0  0  0
  2 21  1  0  0  0
  3  4  1  0  0  0
  3 23  1  0  0  0
  4  7  1  0  0  0
  4  5  2  0  0  0
  5  6  1  0  0  0
  5 24  1  0  0  0
  6 25  1  0  0  0
  7  8  1  0  0  0
  8  9  1  0  0  0
  8 26  1  0  0  0
  8 27  1  0  0  0
  9 14  1  0  0  0
  9 10  1  0  0  0
  9 28  1  0  0  0
 10 11  1  0  0  0
 10 15  1  0  0  0
 10 29  1  0  0  0
 11 12  1  0  0  0
 11 30  1  0  0  0
 11 31  1  0  0  0
 12 13  1  0  0  0
 12 32  1  0  0  0
 12 33  1  0  0  0
 13 14  1  0  0  0
 13 34  1  0  0  0
 13 35  1  0  0  0
 14 36  1  0  0  0
 14 37  1  0  0  0
 15 16  2  0  0  0
 15 17  1  0  0  0
 17 18  1  0  0  0
 17 38  1  0  0  0
 18 19  1  0  0  0
 18 39  1  0  0  0
 18 40  1  0  0  0
 19 20  3  0  0  0
M  END
> <chembl_id>
CHEMBL425582

> <chembl_pref_name>
None

> <i_m_ct_stereo_status>
1

> <s_m_source_file>
sdf/inactives_sanitized.sdf

> <i_m_source_file_index>
155

> <i_lp_mmshare_version>
49012

> <i_f3d_flags>
0

> <s_epik_input>
RmMxW2NIXVtjSF1bY0hdYyhbY0hdMSlTW0NIMl1bQ0BIXTJbQ0BASF0oW0NIMl1bQ0gyXVtDSDJdW0NIMl0yKUMoPU8pW05IXVtDSDJdQyNO

> <s_epik_cmdline>
J2VwaWtfcHl0aG9uJywgJy1waHQnLCAnMC41JywgJy1waCcsICc3LjUnLCAnLW50JywgJy1tYScsICcyMDAnLCAnLWltYWUnLCAnPGluZmlsZS5tYWU+JywgJy1vbWFlJywgJzxvdXRmaWxlLm1hZT4n

> <r_lp_tautomer_probability>
1

> <r_epik_Ionization_Penalty>
  0.0000

> <r_epik_Ionization_Penalty_Charging>
  0.0000

> <r_epik_Ionization_Penalty_Neutral>
  0.0000

> <r_epik_State_Penalty>
 -0.0000

> <r_epik_Charging_Adjusted_Penalty>
0

> <i_epik_Tot_Q>
0

> <i_epik_Tot_abs_Q>
0

> <s_lp_Force_Field>
OPLS3e

> <r_lp_Energy>
19.007042

> <b_lp_Chiralities_Consistent>
1

> <s_lp_Variant>
sdf/inactives_sanitized.sdf:155-1

$$$$
sdf/inactives_sanitized.sdf:156
                    3D
 Schrodinger Suite 2020-1.
 57 59  0  0  1  0            999 V2000
   -0.7487    0.0514   -0.0820 C   0  0  0  0  0  0
   -1.3348   -0.6066   -1.3527 C   0  0  0  0  0  0
   -1.3306   -0.6115    1.1883 C   0  0  0  0  0  0
    5.6591   -2.3774   -2.7260 S   0  0  0  0  0  0
    6.7047   -1.5536   -2.1084 O   0  0  0  0  0  0
    5.9110   -3.7956   -3.0069 O   0  0  0  0  0  0
    4.0637   -2.2417   -1.7036 C   0  0  2  0  0  0
    3.6586   -0.7766   -1.4520 C   0  0  0  0  0  0
    3.0555   -0.7398   -0.0339 C   0  0  2  0  0  0
    3.8434   -1.8388    0.7421 C   0  0  1  0  0  0
    4.1749   -2.9219   -0.3230 C   0  0  0  0  0  0
    1.5358   -1.0433   -0.0942 C   0  0  0  0  0  0
    5.1156   -1.2169    1.3968 C   0  0  0  0  0  0
    6.2066   -1.3456    0.8361 O   0  0  0  0  0  0
    4.9746   -0.4334    2.5020 N   0  0  0  0  0  0
    6.1544    0.1424    3.1718 C   0  0  0  0  0  0
    6.4126   -0.7323    4.4223 C   0  0  0  0  0  0
    5.2461   -0.7848    5.2477 O   0  0  0  0  0  0
    4.0933   -1.3007    4.5791 C   0  0  0  0  0  0
    3.7668   -0.4311    3.3446 C   0  0  0  0  0  0
    0.7215    0.0305   -0.0850 N   0  0  0  0  0  0
    1.1156   -2.2008   -0.0593 O   0  0  0  0  0  0
   -1.1564    1.4686   -0.0775 C   0  0  0  0  0  0
   -1.4755    2.5815   -0.0738 N   0  0  0  0  0  0
    5.2103   -1.6011   -4.2774 C   0  0  0  0  0  0
    5.4685   -0.2427   -4.4794 C   0  0  0  0  0  0
    5.1013    0.3595   -5.6798 C   0  0  0  0  0  0
    4.4792   -0.3979   -6.6705 C   0  0  0  0  0  0
    4.2197   -1.7527   -6.4723 C   0  0  0  0  0  0
    4.5854   -2.3569   -5.2724 C   0  0  0  0  0  0
   -2.4205   -0.5054   -1.3861 H   0  0  0  0  0  0
   -1.1118   -1.6727   -1.4035 H   0  0  0  0  0  0
   -0.9382   -0.1461   -2.2587 H   0  0  0  0  0  0
   -2.4147   -0.4994    1.2314 H   0  0  0  0  0  0
   -0.9219   -0.1624    2.0947 H   0  0  0  0  0  0
   -1.1190   -1.6802    1.2284 H   0  0  0  0  0  0
    3.2992   -2.7428   -2.2990 H   0  0  0  0  0  0
    4.5337   -0.1252   -1.4543 H   0  0  0  0  0  0
    2.9945   -0.3870   -2.2261 H   0  0  0  0  0  0
    3.1446    0.2340    0.4549 H   0  0  0  0  0  0
    3.2743   -2.2795    1.5621 H   0  0  0  0  0  0
    5.1426   -3.4022   -0.1684 H   0  0  0  0  0  0
    3.4336   -3.7188   -0.2484 H   0  0  0  0  0  0
    7.0149    0.3169    2.5242 H   0  0  0  0  0  0
    5.8339    1.1366    3.4857 H   0  0  0  0  0  0
    6.7134   -1.7419    4.1351 H   0  0  0  0  0  0
    7.2436   -0.3234    4.9969 H   0  0  0  0  0  0
    4.2552   -2.3415    4.2914 H   0  0  0  0  0  0
    3.2449   -1.3106    5.2634 H   0  0  0  0  0  0
    3.6734    0.6071    3.6663 H   0  0  0  0  0  0
    2.8160   -0.6160    2.8454 H   0  0  0  0  0  0
    1.1583    0.9409   -0.0832 H   0  0  0  0  0  0
    5.9460    0.3478   -3.7111 H   0  0  0  0  0  0
    5.2968    1.4093   -5.8415 H   0  0  0  0  0  0
    4.1941    0.0698   -7.6014 H   0  0  0  0  0  0
    3.7357   -2.3312   -7.2455 H   0  0  0  0  0  0
    4.3790   -3.4060   -5.1180 H   0  0  0  0  0  0
  1  2  1  0  0  0
  1  3  1  0  0  0
  1 21  1  0  0  0
  1 23  1  0  0  0
  2 31  1  0  0  0
  2 32  1  0  0  0
  2 33  1  0  0  0
  3 34  1  0  0  0
  3 35  1  0  0  0
  3 36  1  0  0  0
  4  5  2  0  0  0
  4  6  2  0  0  0
  4  7  1  0  0  0
  4 25  1  0  0  0
  7  8  1  0  0  0
  7 11  1  0  0  0
  7 37  1  0  0  0
  8  9  1  0  0  0
  8 38  1  0  0  0
  8 39  1  0  0  0
  9 10  1  0  0  0
  9 12  1  0  0  0
  9 40  1  0  0  0
 10 11  1  0  0  0
 10 13  1  0  0  0
 10 41  1  0  0  0
 11 42  1  0  0  0
 11 43  1  0  0  0
 12 21  1  0  0  0
 12 22  2  0  0  0
 13 14  2  0  0  0
 13 15  1  0  0  0
 15 16  1  0  0  0
 15 20  1  0  0  0
 16 17  1  0  0  0
 16 44  1  0  0  0
 16 45  1  0  0  0
 17 18  1  0  0  0
 17 46  1  0  0  0
 17 47  1  0  0  0
 18 19  1  0  0  0
 19 20  1  0  0  0
 19 48  1  0  0  0
 19 49  1  0  0  0
 20 50  1  0  0  0
 20 51  1  0  0  0
 21 52  1  0  0  0
 23 24  3  0  0  0
 25 26  2  0  0  0
 25 30  1  0  0  0
 26 27  1  0  0  0
 26 53  1  0  0  0
 27 28  2  0  0  0
 27 54  1  0  0  0
 28 29  1  0  0  0
 28 55  1  0  0  0
 29 30  2  0  0  0
 29 56  1  0  0  0
 30 57  1  0  0  0
M  END
> <chembl_id>
CHEMBL3093946

> <chembl_pref_name>
None

> <i_m_ct_stereo_status>
1

> <s_m_source_file>
sdf/inactives_sanitized.sdf

> <i_m_source_file_index>
156

> <i_lp_mmshare_version>
49012

> <i_f3d_flags>
0

> <s_epik_input>
W0NIMl0xW0NIMl1PW0NIMl1bQ0gyXU4xQyg9TylbQ0BIXShbQ0gyXTIpW0NASF0oQyg9TylbTkhdQyhbQ0gzXSkoW0NIM10pQyNOKVtDSDJdW0NASF0yUyg9TykoPU8pYzNbY0hdW2NIXVtjSF1bY0hdW2NIXTM=

> <s_epik_cmdline>
J2VwaWtfcHl0aG9uJywgJy1waHQnLCAnMC41JywgJy1waCcsICc3LjUnLCAnLW50JywgJy1tYScsICcyMDAnLCAnLWltYWUnLCAnPGluZmlsZS5tYWU+JywgJy1vbWFlJywgJzxvdXRmaWxlLm1hZT4n

> <r_lp_tautomer_probability>
1

> <r_epik_Ionization_Penalty>
  0.0000

> <r_epik_Ionization_Penalty_Charging>
  0.0000

> <r_epik_Ionization_Penalty_Neutral>
  0.0000

> <r_epik_State_Penalty>
 -0.0000

> <r_epik_Charging_Adjusted_Penalty>
0

> <i_epik_Tot_Q>
0

> <i_epik_Tot_abs_Q>
0

> <s_lp_Force_Field>
OPLS3e

> <r_lp_Energy>
22.578869

> <b_lp_Chiralities_Consistent>
1

> <s_lp_Variant>
sdf/inactives_sanitized.sdf:156-1

$$$$
sdf/inactives_sanitized.sdf:157
                    3D
 Schrodinger Suite 2020-1.
 71 73  0  0  1  0            999 V2000
   -0.1565   -2.2080    1.5976 C   0  0  0  0  0  0
   -0.5340   -0.7177    1.5888 C   0  0  0  0  0  0
    0.0003    0.0597    0.3565 C   0  0  2  0  0  0
    1.4743    0.0237    0.2986 N   0  0  0  0  0  0
    2.2488    0.4005   -0.7373 C   0  0  0  0  0  0
    1.7912    0.8352   -1.7958 O   0  0  0  0  0  0
    3.7742    0.3642   -0.4931 C   0  0  2  0  0  0
    4.3090    1.7988   -0.2969 C   0  0  0  0  0  0
    5.6678    1.8232   -0.9804 C   0  0  2  0  0  0
    5.5376    0.8194   -2.1279 C   0  0  0  0  0  0
    4.5586   -0.1534   -1.6396 N   0  0  0  0  0  0
    4.4856   -1.4429   -2.1863 C   0  0  0  0  0  0
    5.1582   -1.8403   -3.1398 O   0  0  0  0  0  0
    3.5790   -2.2146   -1.5116 O   0  0  0  0  0  0
    3.2481   -3.5812   -1.8144 C   0  0  0  0  0  0
    4.4724   -4.5081   -1.6197 C   0  0  0  0  0  0
    2.6614   -3.7224   -3.2408 C   0  0  0  0  0  0
    2.1604   -3.9418   -0.7831 C   0  0  0  0  0  0
    6.9949    1.2640    0.2705 S   0  0  0  0  0  0
    7.1504    2.3060    1.2915 O   0  0  0  0  0  0
    6.6899   -0.1083    0.6938 O   0  0  0  0  0  0
    8.5204    1.2036   -0.6980 C   0  0  0  0  0  0
    8.9654   -0.0519   -1.1334 C   0  0  0  0  0  0
   10.1332   -0.1753   -1.8823 C   0  0  0  0  0  0
   10.8761    0.9572   -2.2026 C   0  0  0  0  0  0
   12.3237    0.8074   -3.1304 Cl  0  0  0  0  0  0
   10.4491    2.2118   -1.7719 C   0  0  0  0  0  0
    9.2783    2.3511   -1.0172 C   0  0  0  0  0  0
    8.8776    3.7549   -0.5830 C   0  0  0  0  0  0
   -0.4793    1.5180    0.4048 C   0  0  0  0  0  0
    0.2296    2.4752    0.7377 O   0  0  0  0  0  0
   -1.9887    1.7467   -0.0276 C   0  0  0  0  0  0
   -2.6972    0.8171   -0.4184 O   0  0  0  0  0  0
   -2.3682    3.0326    0.0888 N   0  0  0  0  0  0
   -3.6623    3.5500   -0.3425 C   0  0  0  0  0  0
   -4.4218    4.4615    0.5929 C   0  0  0  0  0  0
   -4.9242    3.0609    0.3375 C   0  0  0  0  0  0
   -0.5767   -2.7094    2.4697 H   0  0  0  0  0  0
    0.9242   -2.3492    1.6286 H   0  0  0  0  0  0
   -0.5377   -2.7159    0.7112 H   0  0  0  0  0  0
   -1.6220   -0.6504    1.6400 H   0  0  0  0  0  0
   -0.1582   -0.2640    2.5082 H   0  0  0  0  0  0
   -0.3651   -0.4367   -0.5460 H   0  0  0  0  0  0
    1.9260   -0.2900    1.1454 H   0  0  0  0  0  0
    3.9523   -0.2357    0.4009 H   0  0  0  0  0  0
    3.6916    2.5521   -0.7925 H   0  0  0  0  0  0
    4.3408    2.1000    0.7512 H   0  0  0  0  0  0
    5.9779    2.8146   -1.3048 H   0  0  0  0  0  0
    5.0755    1.3006   -2.9910 H   0  0  0  0  0  0
    6.4904    0.3930   -2.4424 H   0  0  0  0  0  0
    4.1936   -5.5586   -1.7087 H   0  0  0  0  0  0
    4.9192   -4.3702   -0.6343 H   0  0  0  0  0  0
    5.2535   -4.3195   -2.3560 H   0  0  0  0  0  0
    3.4017   -3.5226   -4.0149 H   0  0  0  0  0  0
    1.8354   -3.0277   -3.3986 H   0  0  0  0  0  0
    2.2797   -4.7291   -3.4152 H   0  0  0  0  0  0
    1.8207   -4.9720   -0.8990 H   0  0  0  0  0  0
    1.2877   -3.2954   -0.8858 H   0  0  0  0  0  0
    2.5247   -3.8295    0.2392 H   0  0  0  0  0  0
    8.4050   -0.9460   -0.9033 H   0  0  0  0  0  0
   10.4583   -1.1509   -2.2133 H   0  0  0  0  0  0
   11.0369    3.0824   -2.0253 H   0  0  0  0  0  0
    9.4196    4.5227   -1.1367 H   0  0  0  0  0  0
    9.0715    3.8958    0.4805 H   0  0  0  0  0  0
    7.8202    3.9387   -0.7612 H   0  0  0  0  0  0
   -1.6762    3.7133    0.3679 H   0  0  0  0  0  0
   -3.7134    3.7517   -1.4135 H   0  0  0  0  0  0
   -3.9854    4.6993    1.5636 H   0  0  0  0  0  0
   -4.9619    5.3058    0.1641 H   0  0  0  0  0  0
   -4.8412    2.3144    1.1279 H   0  0  0  0  0  0
   -5.8149    2.9178   -0.2745 H   0  0  0  0  0  0
  1  2  1  0  0  0
  1 38  1  0  0  0
  1 39  1  0  0  0
  1 40  1  0  0  0
  2  3  1  0  0  0
  2 41  1  0  0  0
  2 42  1  0  0  0
  3  4  1  0  0  0
  3 30  1  0  0  0
  3 43  1  0  0  0
  4  5  1  0  0  0
  4 44  1  0  0  0
  5  6  2  0  0  0
  5  7  1  0  0  0
  7  8  1  0  0  0
  7 11  1  0  0  0
  7 45  1  0  0  0
  8  9  1  0  0  0
  8 46  1  0  0  0
  8 47  1  0  0  0
  9 10  1  0  0  0
  9 19  1  0  0  0
  9 48  1  0  0  0
 10 11  1  0  0  0
 10 49  1  0  0  0
 10 50  1  0  0  0
 11 12  1  0  0  0
 12 13  2  0  0  0
 12 14  1  0  0  0
 14 15  1  0  0  0
 15 16  1  0  0  0
 15 17  1  0  0  0
 15 18  1  0  0  0
 16 51  1  0  0  0
 16 52  1  0  0  0
 16 53  1  0  0  0
 17 54  1  0  0  0
 17 55  1  0  0  0
 17 56  1  0  0  0
 18 57  1  0  0  0
 18 58  1  0  0  0
 18 59  1  0  0  0
 19 20  2  0  0  0
 19 21  2  0  0  0
 19 22  1  0  0  0
 22 23  2  0  0  0
 22 28  1  0  0  0
 23 24  1  0  0  0
 23 60  1  0  0  0
 24 25  2  0  0  0
 24 61  1  0  0  0
 25 26  1  0  0  0
 25 27  1  0  0  0
 27 28  2  0  0  0
 27 62  1  0  0  0
 28 29  1  0  0  0
 29 63  1  0  0  0
 29 64  1  0  0  0
 29 65  1  0  0  0
 30 31  2  0  0  0
 30 32  1  0  0  0
 32 33  2  0  0  0
 32 34  1  0  0  0
 34 35  1  0  0  0
 34 66  1  0  0  0
 35 36  1  0  0  0
 35 37  1  0  0  0
 35 67  1  0  0  0
 36 37  1  0  0  0
 36 68  1  0  0  0
 36 69  1  0  0  0
 37 70  1  0  0  0
 37 71  1  0  0  0
M  END
> <chembl_id>
CHEMBL3649363

> <chembl_pref_name>
None

> <i_m_ct_stereo_status>
1

> <s_m_source_file>
sdf/inactives_sanitized.sdf

> <i_m_source_file_index>
157

> <i_lp_mmshare_version>
49012

> <i_f3d_flags>
0

> <s_epik_input>
W0NIMl0xW0NIMl1bQ0hdMVtOSF1DKD1PKUMoPU8pW0NASF0oW0NIMl1bQ0gzXSlbTkhdQyg9TylbQ0BASF0yW0NIMl1bQ0BIXShbQ0gyXU4yQyg9TylPQyhbQ0gzXSkoW0NIM10pW0NIM10pUyg9TykoPU8pYzNbY0hdW2NIXWMoQ2wpW2NIXWMzW0NIM10=

> <s_epik_cmdline>
J2VwaWtfcHl0aG9uJywgJy1waHQnLCAnMC41JywgJy1waCcsICc3LjUnLCAnLW50JywgJy1tYScsICcyMDAnLCAnLWltYWUnLCAnPGluZmlsZS5tYWU+JywgJy1vbWFlJywgJzxvdXRmaWxlLm1hZT4n

> <r_lp_tautomer_probability>
1

> <r_epik_Ionization_Penalty>
  0.0000

> <r_epik_Ionization_Penalty_Charging>
  0.0000

> <r_epik_Ionization_Penalty_Neutral>
  0.0000

> <r_epik_State_Penalty>
 -0.0000

> <r_epik_Charging_Adjusted_Penalty>
0

> <i_epik_Tot_Q>
0

> <i_epik_Tot_abs_Q>
0

> <s_epik_Chemistry_Notes>
This compound has an ester and may undergo hydrolysis at high or low pH.

> <s_lp_Force_Field>
OPLS3e

> <r_lp_Energy>
19.408795

> <b_lp_Chiralities_Consistent>
1

> <s_lp_Variant>
sdf/inactives_sanitized.sdf:157-1

$$$$
sdf/inactives_sanitized.sdf:158
                    3D
 Schrodinger Suite 2020-1.
 64 65  0  0  1  0            999 V2000
   -1.1434    4.4915    0.9239 C   0  0  0  0  0  0
   -0.5344    3.7188   -0.2825 C   0  0  0  0  0  0
    0.6780    4.5569   -0.7829 C   0  0  0  0  0  0
   -0.2228   -0.1621   -0.2360 C   0  0  0  0  0  0
   -0.8435    1.0751    0.0349 C   0  0  0  0  0  0
   -2.2371    1.1169    0.1760 C   0  0  0  0  0  0
   -3.0314   -0.0190   -0.0203 C   0  0  0  0  0  0
   -2.4058   -1.2384   -0.2876 C   0  0  0  0  0  0
   -1.0192   -1.3081   -0.3955 C   0  0  0  0  0  0
   -0.0348    2.3286    0.2604 C   0  0  0  0  0  0
    1.0593    2.2820    0.8300 O   0  0  0  0  0  0
   -1.5161    3.5509   -1.4796 C   0  0  0  0  0  0
   -1.1175    2.8373   -2.6239 C   0  0  0  0  0  0
   -1.9877    2.6515   -3.6975 C   0  0  0  0  0  0
   -3.2715    3.1907   -3.6546 C   0  0  0  0  0  0
   -3.6808    3.9201   -2.5404 C   0  0  0  0  0  0
   -2.8091    4.1050   -1.4671 C   0  0  0  0  0  0
   -5.2703    4.5894   -2.4840 Cl  0  0  0  0  0  0
   -1.4761    1.7470   -5.0750 Cl  0  0  0  0  0  0
    1.1517   -0.2026   -0.3821 O   0  0  0  0  0  0
    1.8469   -1.4172   -0.1074 C   0  0  0  0  0  0
   -4.5339    0.0703    0.0510 C   0  0  0  0  0  0
   -5.2037   -0.8491    0.5238 O   0  0  0  0  0  0
   -5.0568    1.2014   -0.4568 N   0  0  0  0  0  0
   -6.4730    1.5760   -0.4593 C   0  0  0  0  0  0
   -6.7552    2.7952    0.4445 C   0  0  0  0  0  0
   -5.7437    3.3693    1.1245 N   0  0  0  0  0  0
   -7.9058    3.2247    0.5101 O   0  0  0  0  0  0
   -5.8705    4.5881    1.9156 C   0  0  0  0  0  0
   -6.0828    5.7826    1.0798 C   0  0  0  0  0  0
   -6.2478    6.7205    0.4227 N   0  0  0  0  0  0
    3.3183   -1.0985    0.2178 C   0  0  0  0  0  0
    3.4440    0.0478    1.2508 N   0  3  0  0  0  0
    2.8124   -0.2836    2.6182 C   0  0  0  0  0  0
    4.9077    0.5002    1.4147 C   0  0  0  0  0  0
   -2.0263    4.0008    1.3349 H   0  0  0  0  0  0
   -1.4369    5.5044    0.6438 H   0  0  0  0  0  0
   -0.4299    4.5962    1.7436 H   0  0  0  0  0  0
    1.2430    4.0433   -1.5624 H   0  0  0  0  0  0
    1.3809    4.7897    0.0190 H   0  0  0  0  0  0
    0.3532    5.5112   -1.2010 H   0  0  0  0  0  0
   -2.7196    2.0483    0.4319 H   0  0  0  0  0  0
   -2.9889   -2.1368   -0.4353 H   0  0  0  0  0  0
   -0.5736   -2.2641   -0.6259 H   0  0  0  0  0  0
   -0.1282    2.4059   -2.6736 H   0  0  0  0  0  0
   -3.9475    3.0453   -4.4848 H   0  0  0  0  0  0
   -3.1671    4.6730   -0.6223 H   0  0  0  0  0  0
    1.3994   -1.9565    0.7297 H   0  0  0  0  0  0
    1.7927   -2.0748   -0.9762 H   0  0  0  0  0  0
   -4.4256    1.8733   -0.8682 H   0  0  0  0  0  0
   -6.7508    1.8292   -1.4826 H   0  0  0  0  0  0
   -7.1093    0.7448   -0.1521 H   0  0  0  0  0  0
   -4.8141    2.9881    1.0277 H   0  0  0  0  0  0
   -6.6874    4.5080    2.6346 H   0  0  0  0  0  0
   -4.9541    4.7354    2.4867 H   0  0  0  0  0  0
    3.8563   -1.9537    0.6304 H   0  0  0  0  0  0
    3.8388   -0.7404   -0.6719 H   0  0  0  0  0  0
    3.3088   -1.1735    3.0083 H   0  0  0  0  0  0
    1.7466   -0.4487    2.4603 H   0  0  0  0  0  0
    2.9678    0.5806    3.2654 H   0  0  0  0  0  0
    5.4734   -0.3395    1.8217 H   0  0  0  0  0  0
    4.9087    1.3541    2.0934 H   0  0  0  0  0  0
    5.2709    0.7915    0.4284 H   0  0  0  0  0  0
    2.9344    0.8363    0.8743 H   0  0  0  0  0  0
  1  2  1  0  0  0
  1 36  1  0  0  0
  1 37  1  0  0  0
  1 38  1  0  0  0
  2  3  1  0  0  0
  2 10  1  0  0  0
  2 12  1  0  0  0
  3 39  1  0  0  0
  3 40  1  0  0  0
  3 41  1  0  0  0
  4  5  2  0  0  0
  4  9  1  0  0  0
  4 20  1  0  0  0
  5  6  1  0  0  0
  5 10  1  0  0  0
  6  7  2  0  0  0
  6 42  1  0  0  0
  7  8  1  0  0  0
  7 22  1  0  0  0
  8  9  2  0  0  0
  8 43  1  0  0  0
  9 44  1  0  0  0
 10 11  2  0  0  0
 12 13  2  0  0  0
 12 17  1  0  0  0
 13 14  1  0  0  0
 13 45  1  0  0  0
 14 15  2  0  0  0
 14 19  1  0  0  0
 15 16  1  0  0  0
 15 46  1  0  0  0
 16 17  2  0  0  0
 16 18  1  0  0  0
 17 47  1  0  0  0
 20 21  1  0  0  0
 21 32  1  0  0  0
 21 48  1  0  0  0
 21 49  1  0  0  0
 22 23  2  0  0  0
 22 24  1  0  0  0
 24 25  1  0  0  0
 24 50  1  0  0  0
 25 26  1  0  0  0
 25 51  1  0  0  0
 25 52  1  0  0  0
 26 27  1  0  0  0
 26 28  2  0  0  0
 27 29  1  0  0  0
 27 53  1  0  0  0
 29 30  1  0  0  0
 29 54  1  0  0  0
 29 55  1  0  0  0
 30 31  3  0  0  0
 32 33  1  0  0  0
 32 56  1  0  0  0
 32 57  1  0  0  0
 33 34  1  0  0  0
 33 35  1  0  0  0
 33 64  1  0  0  0
 34 58  1  0  0  0
 34 59  1  0  0  0
 34 60  1  0  0  0
 35 61  1  0  0  0
 35 62  1  0  0  0
 35 63  1  0  0  0
M  CHG  1  33   1
M  END
> <chembl_id>
CHEMBL3354493

> <chembl_pref_name>
None

> <s_m_source_file>
sdf/inactives_sanitized.sdf

> <i_m_source_file_index>
158

> <i_lp_mmshare_version>
49012

> <i_m_ct_stereo_status>
1

> <i_f3d_flags>
0

> <s_epik_input>
W2NIXTFjKENsKVtjSF1jKENsKVtjSF1jMUMoW0NIM10pKFtDSDNdKUMoPU8pYyhjMk9bQ0gyXVtDSDJdTihbQ0gzXSlbQ0gzXSlbY0hdYyhbY0hdW2NIXTIpQyg9TylbTkhdW0NIMl1DKD1PKVtOSF1bQ0gyXUMjTg==

> <s_epik_cmdline>
J2VwaWtfcHl0aG9uJywgJy1waHQnLCAnMC41JywgJy1waCcsICc3LjUnLCAnLW50JywgJy1tYScsICcyMDAnLCAnLWltYWUnLCAnPGluZmlsZS5tYWU+JywgJy1vbWFlJywgJzxvdXRmaWxlLm1hZT4n

> <r_epik_Ionization_Penalty>
  0.0751

> <r_epik_Ionization_Penalty_Charging>
  0.0751

> <r_epik_Ionization_Penalty_Neutral>
  0.0000

> <r_epik_State_Penalty>
  0.0662

> <r_epik_Charging_Adjusted_Penalty>
0.141341821197771

> <i_epik_Tot_Q>
1

> <i_epik_Tot_abs_Q>
1

> <s_lp_Force_Field>
OPLS3e

> <r_lp_Energy>
52.084084

> <b_lp_Chiralities_Consistent>
1

> <s_lp_Variant>
sdf/inactives_sanitized.sdf:158-1

$$$$
sdf/inactives_sanitized.sdf:159
                    3D
 Schrodinger Suite 2020-1.
 83 86  0  0  1  0            999 V2000
   -4.0150   -4.4171   -3.3556 C   0  0  0  0  0  0
   -3.9056   -4.1979   -1.8406 C   0  0  0  0  0  0
   -3.0671   -2.9568   -1.4754 C   0  0  0  0  0  0
   -2.8136   -2.7607    0.0427 C   0  0  2  0  0  0
   -4.1121   -2.5769    0.8506 C   0  0  0  0  0  0
   -1.9218   -1.6273    0.2991 N   0  0  0  0  0  0
   -0.5910   -1.6133    0.0883 C   0  0  0  0  0  0
    0.0791   -2.5489   -0.3522 O   0  0  0  0  0  0
    0.0695   -0.2216    0.4709 C   0  0  0  0  0  0
   -0.6334    0.7187    0.8602 O   0  0  0  0  0  0
    1.5930   -0.1514    0.2984 C   0  0  2  0  0  0
    2.3146   -0.9174    1.4418 C   0  0  0  0  0  0
    3.8564   -0.8055    1.4411 C   0  0  0  0  0  0
    4.5297   -1.2960    0.1499 C   0  0  0  0  0  0
    2.0107    1.2610    0.2516 N   0  0  0  0  0  0
    1.8911    2.0913   -0.8009 C   0  0  0  0  0  0
    1.3743    1.7533   -1.8676 O   0  0  0  0  0  0
    2.3831    3.5413   -0.5858 C   0  0  2  0  0  0
    1.2537    4.5697   -0.7113 C   0  0  0  0  0  0
    1.3100    5.0405   -2.1557 C   0  0  2  0  0  0
    2.7662    4.8828   -2.5959 C   0  0  0  0  0  0
    3.3552    3.9490   -1.6256 N   0  0  0  0  0  0
    4.6518    3.5254   -1.6308 C   0  0  0  0  0  0
    5.0568    2.7467   -0.7621 O   0  0  0  0  0  0
    5.6474    3.9856   -2.7456 C   0  0  0  0  0  0
    6.9652    3.2117   -2.7772 C   0  0  0  0  0  0
    5.8813    2.8652   -3.7589 C   0  0  0  0  0  0
    5.6549    5.4539   -3.1829 C   0  0  0  0  0  0
    5.3552    5.8216   -4.5002 C   0  0  0  0  0  0
    5.3528    7.1642   -4.8666 C   0  0  0  0  0  0
    5.6421    8.1418   -3.9169 C   0  0  0  0  0  0
    5.6229    9.8070   -4.3696 Cl  0  0  0  0  0  0
    5.9410    7.7855   -2.6036 C   0  0  0  0  0  0
    5.9495    6.4424   -2.2381 C   0  0  0  0  0  0
    0.6637    6.8130   -2.3669 S   0  0  0  0  0  0
   -0.7927    6.8089   -2.1905 O   0  0  0  0  0  0
    1.4923    7.7001   -1.5413 O   0  0  0  0  0  0
    0.9954    7.2099   -4.0938 C   0  0  0  0  0  0
    1.9468    8.1957   -4.3861 C   0  0  0  0  0  0
    2.2367    8.5327   -5.7072 C   0  0  0  0  0  0
    1.5838    7.8829   -6.7512 C   0  0  0  0  0  0
    0.6375    6.8987   -6.4728 C   0  0  0  0  0  0
    0.3360    6.5573   -5.1524 C   0  0  0  0  0  0
   -0.8543    5.3295   -4.8896 Cl  0  0  0  0  0  0
   -4.6185   -5.2972   -3.5787 H   0  0  0  0  0  0
   -3.0333   -4.5669   -3.8062 H   0  0  0  0  0  0
   -4.4820   -3.5623   -3.8460 H   0  0  0  0  0  0
   -4.9115   -4.1059   -1.4310 H   0  0  0  0  0  0
   -3.4659   -5.0852   -1.3830 H   0  0  0  0  0  0
   -2.1064   -3.0397   -1.9864 H   0  0  0  0  0  0
   -3.5391   -2.0625   -1.8857 H   0  0  0  0  0  0
   -2.3250   -3.6596    0.4263 H   0  0  0  0  0  0
   -4.7780   -3.4317    0.7372 H   0  0  0  0  0  0
   -4.6702   -1.7016    0.5156 H   0  0  0  0  0  0
   -3.9097   -2.4742    1.9177 H   0  0  0  0  0  0
   -2.3548   -0.7959    0.6751 H   0  0  0  0  0  0
    1.8778   -0.6090   -0.6520 H   0  0  0  0  0  0
    1.9653   -0.5439    2.4068 H   0  0  0  0  0  0
    2.0471   -1.9751    1.4194 H   0  0  0  0  0  0
    4.1556    0.2253    1.6353 H   0  0  0  0  0  0
    4.2473   -1.3840    2.2792 H   0  0  0  0  0  0
    5.6155   -1.2702    0.2463 H   0  0  0  0  0  0
    4.2656   -0.6695   -0.7027 H   0  0  0  0  0  0
    4.2419   -2.3217   -0.0826 H   0  0  0  0  0  0
    2.4157    1.6174    1.1051 H   0  0  0  0  0  0
    2.8554    3.5671    0.3984 H   0  0  0  0  0  0
    0.2730    4.2094   -0.3944 H   0  0  0  0  0  0
    1.4809    5.3987   -0.0394 H   0  0  0  0  0  0
    0.6620    4.4146   -2.7681 H   0  0  0  0  0  0
    2.8283    4.5536   -3.6339 H   0  0  0  0  0  0
    3.2413    5.8571   -2.4881 H   0  0  0  0  0  0
    7.8544    3.7292   -3.1387 H   0  0  0  0  0  0
    7.2183    2.4898   -1.9996 H   0  0  0  0  0  0
    6.0507    3.1021   -4.8088 H   0  0  0  0  0  0
    5.3596    1.9126   -3.6488 H   0  0  0  0  0  0
    5.1083    5.0784   -5.2430 H   0  0  0  0  0  0
    5.1169    7.4439   -5.8830 H   0  0  0  0  0  0
    6.1638    8.5450   -1.8686 H   0  0  0  0  0  0
    6.1784    6.1698   -1.2179 H   0  0  0  0  0  0
    2.4716    8.7103   -3.5948 H   0  0  0  0  0  0
    2.9712    9.2954   -5.9205 H   0  0  0  0  0  0
    1.8098    8.1421   -7.7751 H   0  0  0  0  0  0
    0.1345    6.3998   -7.2885 H   0  0  0  0  0  0
  1  2  1  0  0  0
  1 45  1  0  0  0
  1 46  1  0  0  0
  1 47  1  0  0  0
  2  3  1  0  0  0
  2 48  1  0  0  0
  2 49  1  0  0  0
  3  4  1  0  0  0
  3 50  1  0  0  0
  3 51  1  0  0  0
  4  5  1  0  0  0
  4  6  1  0  0  0
  4 52  1  0  0  0
  5 53  1  0  0  0
  5 54  1  0  0  0
  5 55  1  0  0  0
  6  7  1  0  0  0
  6 56  1  0  0  0
  7  8  2  0  0  0
  7  9  1  0  0  0
  9 10  2  0  0  0
  9 11  1  0  0  0
 11 12  1  0  0  0
 11 15  1  0  0  0
 11 57  1  0  0  0
 12 13  1  0  0  0
 12 58  1  0  0  0
 12 59  1  0  0  0
 13 14  1  0  0  0
 13 60  1  0  0  0
 13 61  1  0  0  0
 14 62  1  0  0  0
 14 63  1  0  0  0
 14 64  1  0  0  0
 15 16  1  0  0  0
 15 65  1  0  0  0
 16 17  2  0  0  0
 16 18  1  0  0  0
 18 19  1  0  0  0
 18 22  1  0  0  0
 18 66  1  0  0  0
 19 20  1  0  0  0
 19 67  1  0  0  0
 19 68  1  0  0  0
 20 21  1  0  0  0
 20 35  1  0  0  0
 20 69  1  0  0  0
 21 22  1  0  0  0
 21 70  1  0  0  0
 21 71  1  0  0  0
 22 23  1  0  0  0
 23 24  2  0  0  0
 23 25  1  0  0  0
 25 26  1  0  0  0
 25 27  1  0  0  0
 25 28  1  0  0  0
 26 27  1  0  0  0
 26 72  1  0  0  0
 26 73  1  0  0  0
 27 74  1  0  0  0
 27 75  1  0  0  0
 28 29  2  0  0  0
 28 34  1  0  0  0
 29 30  1  0  0  0
 29 76  1  0  0  0
 30 31  2  0  0  0
 30 77  1  0  0  0
 31 32  1  0  0  0
 31 33  1  0  0  0
 33 34  2  0  0  0
 33 78  1  0  0  0
 34 79  1  0  0  0
 35 36  2  0  0  0
 35 37  2  0  0  0
 35 38  1  0  0  0
 38 39  2  0  0  0
 38 43  1  0  0  0
 39 40  1  0  0  0
 39 80  1  0  0  0
 40 41  2  0  0  0
 40 81  1  0  0  0
 41 42  1  0  0  0
 41 82  1  0  0  0
 42 43  2  0  0  0
 42 83  1  0  0  0
 43 44  1  0  0  0
M  END
> <chembl_id>
CHEMBL3649398

> <chembl_pref_name>
None

> <i_m_ct_stereo_status>
1

> <s_m_source_file>
sdf/inactives_sanitized.sdf

> <i_m_source_file_index>
159

> <i_lp_mmshare_version>
49012

> <i_f3d_flags>
0

> <s_epik_input>
W0NIM11bQ0gyXVtDSDJdW0NASF0oW0NIM10pW05IXUMoPU8pQyg9TylbQ0BIXShbQ0gyXVtDSDJdW0NIM10pW05IXUMoPU8pW0NAQEhdMVtDSDJdW0NAQEhdKFMoPU8pKD1PKWMyW2NIXVtjSF1bY0hdW2NIXWMyQ2wpW0NIMl1OMUMoPU8pQzMoW0NIMl1bQ0gyXTMpYzRbY0hdW2NIXWMoQ2wpW2NIXVtjSF00

> <s_epik_cmdline>
J2VwaWtfcHl0aG9uJywgJy1waHQnLCAnMC41JywgJy1waCcsICc3LjUnLCAnLW50JywgJy1tYScsICcyMDAnLCAnLWltYWUnLCAnPGluZmlsZS5tYWU+JywgJy1vbWFlJywgJzxvdXRmaWxlLm1hZT4n

> <r_lp_tautomer_probability>
1

> <r_epik_Ionization_Penalty>
  0.0000

> <r_epik_Ionization_Penalty_Charging>
  0.0000

> <r_epik_Ionization_Penalty_Neutral>
  0.0000

> <r_epik_State_Penalty>
 -0.0000

> <r_epik_Charging_Adjusted_Penalty>
0

> <i_epik_Tot_Q>
0

> <i_epik_Tot_abs_Q>
0

> <s_lp_Force_Field>
OPLS3e

> <r_lp_Energy>
54.683447

> <b_lp_Chiralities_Consistent>
1

> <s_lp_Variant>
sdf/inactives_sanitized.sdf:159-1

$$$$
sdf/inactives_sanitized.sdf:160
                    3D
 Schrodinger Suite 2020-1.
 51 54  0  0  1  0            999 V2000
   -4.9356   -0.8751    0.8902 N   0  0  0  0  0  0
   -4.2746   -0.0125    0.0677 C   0  0  0  0  0  0
   -4.9326    0.8875   -0.7866 C   0  0  0  0  0  0
   -6.2917   -0.8821    0.9174 C   0  0  0  0  0  0
   -7.3183    1.5705   -1.4088 N   0  0  0  0  0  0
   -8.5177    1.0887   -0.9325 C   0  0  0  0  0  0
   -8.3991    0.1477   -0.0321 N   0  0  0  0  0  0
   -7.0435   -0.0168    0.1049 C   0  0  0  0  0  0
   -6.3320    0.8661   -0.7479 C   0  0  0  0  0  0
   -6.8907   -1.8376    1.8373 C   0  0  0  0  0  0
   -7.3674   -2.5972    2.5687 N   0  0  0  0  0  0
   -2.7831   -0.0831    0.1210 C   0  0  0  0  0  0
   -2.0062    1.0754   -0.0099 C   0  0  0  0  0  0
   -0.6061    1.0358    0.0487 C   0  0  0  0  0  0
    0.0441   -0.1951    0.2382 C   0  0  0  0  0  0
   -0.7280   -1.3597    0.3646 C   0  0  0  0  0  0
   -2.1177   -1.3012    0.3075 C   0  0  0  0  0  0
    0.2100    2.3250   -0.1003 C   0  0  0  0  0  0
    0.9335    2.5301    1.0008 F   0  0  0  0  0  0
    1.0377    2.2167   -1.1409 F   0  0  0  0  0  0
   -0.5553    3.4009   -0.2958 F   0  0  0  0  0  0
   -7.1361    2.6070   -2.4101 C   0  0  0  0  0  0
    1.4246   -0.1905    0.3128 O   0  0  0  0  0  0
    2.1436   -1.4139    0.1742 C   0  0  0  0  0  0
    3.6582   -1.1248    0.1223 C   0  0  0  0  0  0
    4.0409   -0.0978   -0.8568 N   0  0  2  0  0  0
    3.7644   -0.4877   -2.2405 C   0  0  0  0  0  0
    4.0450    0.6822   -3.2059 C   0  0  0  0  0  0
    5.2539    1.4376   -2.8466 N   0  0  0  0  0  0
    5.9290    1.3500   -1.6794 C   0  0  0  0  0  0
    5.4536    0.2716   -0.6681 C   0  0  0  0  0  0
    6.8947    2.0784   -1.4623 O   0  0  0  0  0  0
   -4.3927    1.5560   -1.4411 H   0  0  0  0  0  0
   -9.4469    1.4924   -1.3080 H   0  0  0  0  0  0
   -2.5041    2.0241   -0.1462 H   0  0  0  0  0  0
   -0.2666   -2.3233    0.5179 H   0  0  0  0  0  0
   -2.6786   -2.2191    0.4099 H   0  0  0  0  0  0
   -6.6013    2.1916   -3.2647 H   0  0  0  0  0  0
   -6.5524    3.4226   -1.9819 H   0  0  0  0  0  0
   -8.1026    2.9901   -2.7403 H   0  0  0  0  0  0
    1.9413   -2.0602    1.0295 H   0  0  0  0  0  0
    1.8251   -1.9574   -0.7167 H   0  0  0  0  0  0
    3.9656   -0.7972    1.1168 H   0  0  0  0  0  0
    4.2018   -2.0492   -0.0801 H   0  0  0  0  0  0
    4.4347   -1.3176   -2.4734 H   0  0  0  0  0  0
    2.7368   -0.8273   -2.3672 H   0  0  0  0  0  0
    4.0992    0.3229   -4.2337 H   0  0  0  0  0  0
    3.2141    1.3868   -3.1466 H   0  0  0  0  0  0
    5.5740    2.1360   -3.5016 H   0  0  0  0  0  0
    6.1096   -0.5984   -0.7381 H   0  0  0  0  0  0
    5.5926    0.6846    0.3328 H   0  0  0  0  0  0
  1  4  2  0  0  0
  1  2  1  0  0  0
  2 12  1  0  0  0
  2  3  2  0  0  0
  3  9  1  0  0  0
  3 33  1  0  0  0
  4  8  1  0  0  0
  4 10  1  0  0  0
  5  6  1  0  0  0
  5  9  1  0  0  0
  5 22  1  0  0  0
  6  7  2  0  0  0
  6 34  1  0  0  0
  7  8  1  0  0  0
  8  9  2  0  0  0
 10 11  3  0  0  0
 12 17  1  0  0  0
 12 13  2  0  0  0
 13 14  1  0  0  0
 13 35  1  0  0  0
 14 18  1  0  0  0
 14 15  2  0  0  0
 15 16  1  0  0  0
 15 23  1  0  0  0
 16 17  2  0  0  0
 16 36  1  0  0  0
 17 37  1  0  0  0
 18 19  1  0  0  0
 18 20  1  0  0  0
 18 21  1  0  0  0
 22 38  1  0  0  0
 22 39  1  0  0  0
 22 40  1  0  0  0
 23 24  1  0  0  0
 24 25  1  0  0  0
 24 41  1  0  0  0
 24 42  1  0  0  0
 25 26  1  0  0  0
 25 43  1  0  0  0
 25 44  1  0  0  0
 26 27  1  0  0  0
 26 31  1  0  0  0
 27 28  1  0  0  0
 27 45  1  0  0  0
 27 46  1  0  0  0
 28 29  1  0  0  0
 28 47  1  0  0  0
 28 48  1  0  0  0
 29 30  1  0  0  0
 29 49  1  0  0  0
 30 31  1  0  0  0
 30 32  2  0  0  0
 31 50  1  0  0  0
 31 51  1  0  0  0
M  END
> <chembl_id>
CHEMBL1209085

> <chembl_pref_name>
None

> <s_m_source_file>
sdf/inactives_sanitized.sdf

> <i_m_source_file_index>
160

> <i_lp_mmshare_version>
49012

> <i_m_ct_stereo_status>
1

> <i_f3d_flags>
0

> <s_epik_input>
bjFbY0hdbihbQ0gzXSljKGMxMilbY0hdYyhuYzJDI04pLWMzW2NIXWMoQyhGKShGKUYpYyhbY0hdW2NIXTMpT1tDSDJdW0NIMl1ONFtDSDJdW0NIMl1bTkhdQyg9TylbQ0gyXTQ=

> <s_epik_cmdline>
J2VwaWtfcHl0aG9uJywgJy1waHQnLCAnMC41JywgJy1waCcsICc3LjUnLCAnLW50JywgJy1tYScsICcyMDAnLCAnLWltYWUnLCAnPGluZmlsZS5tYWU+JywgJy1vbWFlJywgJzxvdXRmaWxlLm1hZT4n

> <r_lp_tautomer_probability>
1

> <r_epik_Ionization_Penalty>
  0.1874

> <r_epik_Ionization_Penalty_Charging>
  0.0000

> <r_epik_Ionization_Penalty_Neutral>
  0.1874

> <r_epik_State_Penalty>
  0.1770

> <r_epik_Charging_Adjusted_Penalty>
0.176960267785181

> <i_epik_Tot_Q>
0

> <i_epik_Tot_abs_Q>
0

> <s_lp_Force_Field>
OPLS3e

> <r_lp_Energy>
51.547354

> <b_lp_Chiralities_Consistent>
1

> <s_lp_Variant>
sdf/inactives_sanitized.sdf:160-1

$$$$
sdf/inactives_sanitized.sdf:161
                    3D
 Schrodinger Suite 2020-1.
 40 43  0  0  1  0            999 V2000
    4.1610   -1.2539   -0.2379 O   0  0  0  0  0  0
   -0.1010    2.4030   -0.0831 O   0  0  0  0  0  0
    1.6146    0.1446   -2.5215 N   0  0  1  0  0  0
    2.0274   -0.5828   -1.2863 C   0  0  1  0  0  0
    3.5771   -0.7355   -1.1887 C   0  0  0  0  0  0
   -0.0874   -0.0012    0.0681 C   0  0  0  0  0  0
    4.3127   -0.1478   -2.4100 C   0  0  0  0  0  0
   -0.7870    1.2146   -0.0006 C   0  0  0  0  0  0
    1.4423   -0.0606    0.0545 C   0  0  0  0  0  0
   -2.2153    1.2216    0.0175 C   0  0  0  0  0  0
   -2.9153   -0.0223    0.1068 C   0  0  0  0  0  0
    2.2765    1.4662   -2.5638 C   0  0  0  0  0  0
    2.0947   -0.6246   -3.6890 C   0  0  0  0  0  0
    3.8324    1.3321   -2.5384 C   0  0  0  0  0  0
    3.6498   -0.7888   -3.6711 C   0  0  0  0  0  0
   -0.7898   -1.2026    0.1542 C   0  0  0  0  0  0
   -2.1786   -1.2262    0.1737 C   0  0  0  0  0  0
   -2.9796    2.4215   -0.0486 C   0  0  0  0  0  0
   -4.3327   -0.0262    0.1273 C   0  0  0  0  0  0
   -4.3708    2.3824   -0.0258 C   0  0  0  0  0  0
   -5.0419    1.1689    0.0614 C   0  0  0  0  0  0
   -0.6835    3.1642   -0.1299 H   0  0  0  0  0  0
    1.6549   -1.6025   -1.3970 H   0  0  0  0  0  0
    5.3952   -0.2681   -2.3585 H   0  0  0  0  0  0
    1.7476   -0.7137    0.8745 H   0  0  0  0  0  0
    1.8693    0.9120    0.3020 H   0  0  0  0  0  0
    1.9615    1.9990   -3.4624 H   0  0  0  0  0  0
    1.9380    2.0850   -1.7333 H   0  0  0  0  0  0
    1.6108   -1.6022   -3.7095 H   0  0  0  0  0  0
    1.7789   -0.1279   -4.6079 H   0  0  0  0  0  0
    4.2337    1.9122   -1.7053 H   0  0  0  0  0  0
    4.2535    1.7744   -3.4429 H   0  0  0  0  0  0
    4.0764   -0.3450   -4.5722 H   0  0  0  0  0  0
    3.9050   -1.8494   -3.7088 H   0  0  0  0  0  0
   -0.2513   -2.1379    0.2060 H   0  0  0  0  0  0
   -2.7016   -2.1694    0.2413 H   0  0  0  0  0  0
   -2.4800    3.3768   -0.1169 H   0  0  0  0  0  0
   -4.8631   -0.9653    0.1950 H   0  0  0  0  0  0
   -4.9339    3.3028   -0.0757 H   0  0  0  0  0  0
   -6.1218    1.1535    0.0779 H   0  0  0  0  0  0
  1  5  2  0  0  0
  2  8  1  0  0  0
  2 22  1  0  0  0
  3  4  1  0  0  0
  3 12  1  0  0  0
  3 13  1  0  0  0
  4  5  1  0  0  0
  4  9  1  0  0  0
  4 23  1  0  0  0
  5  7  1  0  0  0
  6  8  2  0  0  0
  6  9  1  0  0  0
  6 16  1  0  0  0
  7 14  1  0  0  0
  7 15  1  0  0  0
  7 24  1  0  0  0
  8 10  1  0  0  0
  9 25  1  0  0  0
  9 26  1  0  0  0
 10 11  2  0  0  0
 10 18  1  0  0  0
 11 17  1  0  0  0
 11 19  1  0  0  0
 12 14  1  0  0  0
 12 27  1  0  0  0
 12 28  1  0  0  0
 13 15  1  0  0  0
 13 29  1  0  0  0
 13 30  1  0  0  0
 14 31  1  0  0  0
 14 32  1  0  0  0
 15 33  1  0  0  0
 15 34  1  0  0  0
 16 17  2  0  0  0
 16 35  1  0  0  0
 17 36  1  0  0  0
 18 20  2  0  0  0
 18 37  1  0  0  0
 19 21  2  0  0  0
 19 38  1  0  0  0
 20 21  1  0  0  0
 20 39  1  0  0  0
 21 40  1  0  0  0
M  END
> <chembl_id>
CHEMBL1504792

> <chembl_pref_name>
None

> <i_m_ct_stereo_status>
1

> <s_m_source_file>
sdf/inactives_sanitized.sdf

> <i_m_source_file_index>
161

> <i_lp_mmshare_version>
49012

> <i_f3d_flags>
0

> <s_epik_input>
W0NIMl0xW0NIMl1bQ0hdKFtDSDJdW0NIMl0yKUMoPU8pW0NASF0oTjEyKVtDSDJdYyhjM1tPSF0pW2NIXVtjSF1jKGMzNClbY0hdW2NIXVtjSF1bY0hdNA==

> <s_epik_cmdline>
J2VwaWtfcHl0aG9uJywgJy1waHQnLCAnMC41JywgJy1waCcsICc3LjUnLCAnLW50JywgJy1tYScsICcyMDAnLCAnLWltYWUnLCAnPGluZmlsZS5tYWU+JywgJy1vbWFlJywgJzxvdXRmaWxlLm1hZT4n

> <r_epik_Ionization_Penalty>
  0.1770

> <r_epik_Ionization_Penalty_Charging>
  0.0000

> <r_epik_Ionization_Penalty_Neutral>
  0.1770

> <r_epik_State_Penalty>
  0.0967

> <r_epik_Charging_Adjusted_Penalty>
0.0967029293168395

> <i_epik_Tot_Q>
0

> <i_epik_Tot_abs_Q>
0

> <s_lp_Force_Field>
OPLS3e

> <r_lp_Energy>
35.325366

> <b_lp_Chiralities_Consistent>
1

> <s_lp_Variant>
sdf/inactives_sanitized.sdf:161-1

$$$$
sdf/inactives_sanitized.sdf:162
                    3D
 Schrodinger Suite 2020-1.
 18 19  0  0  1  0            999 V2000
    1.6558   -0.2107   -0.3855 C   0  0  0  0  0  0
    0.6518   -1.1637   -1.1154 C   0  0  0  0  0  0
   -0.7845   -0.5871   -1.2877 C   0  0  1  0  0  0
   -1.1585    0.4482   -0.1795 C   0  0  2  0  0  0
    0.9111    0.5769    0.6186 N   0  0  0  0  0  0
   -0.0577    1.4750    0.0221 C   0  0  0  0  0  0
    0.1931   -0.0753    1.6184 C   0  0  0  0  0  0
   -1.0806   -0.1475    1.1172 O   0  0  0  0  0  0
    0.5497   -0.5816    2.6800 O   0  0  0  0  0  0
   -0.8233    0.4265   -3.0061 Br  0  0  0  0  0  0
    2.1142    0.4911   -1.0835 H   0  0  0  0  0  0
    2.4485   -0.7679    0.1155 H   0  0  0  0  0  0
    1.0648   -1.5276   -2.0566 H   0  0  0  0  0  0
    0.5625   -2.0571   -0.4952 H   0  0  0  0  0  0
   -1.5259   -1.3840   -1.3573 H   0  0  0  0  0  0
   -2.1329    0.9047   -0.3563 H   0  0  0  0  0  0
    0.2948    1.9312   -0.9037 H   0  0  0  0  0  0
   -0.3549    2.2730    0.7072 H   0  0  0  0  0  0
  1  5  1  0  0  0
  1  2  1  0  0  0
  1 11  1  0  0  0
  1 12  1  0  0  0
  2  3  1  0  0  0
  2 13  1  0  0  0
  2 14  1  0  0  0
  3  4  1  0  0  0
  3 10  1  0  0  0
  3 15  1  0  0  0
  4  8  1  0  0  0
  4  6  1  0  0  0
  4 16  1  0  0  0
  5  7  1  0  0  0
  5  6  1  0  0  0
  6 17  1  0  0  0
  6 18  1  0  0  0
  7  8  1  0  0  0
  7  9  2  0  0  0
M  END
> <chembl_id>
CHEMBL397972

> <chembl_pref_name>
None

> <i_m_ct_stereo_status>
1

> <s_m_source_file>
sdf/inactives_sanitized.sdf

> <i_m_source_file_index>
162

> <i_lp_mmshare_version>
49012

> <i_f3d_flags>
0

> <s_epik_input>
TzFDKD1PKU4oW0NIMl0yKVtDSDJdW0NIMl1bQ0BIXShCcilbQ0BASF0xMg==

> <s_epik_cmdline>
J2VwaWtfcHl0aG9uJywgJy1waHQnLCAnMC41JywgJy1waCcsICc3LjUnLCAnLW50JywgJy1tYScsICcyMDAnLCAnLWltYWUnLCAnPGluZmlsZS5tYWU+JywgJy1vbWFlJywgJzxvdXRmaWxlLm1hZT4n

> <r_lp_tautomer_probability>
1

> <r_epik_Ionization_Penalty>
  0.0000

> <r_epik_Ionization_Penalty_Charging>
  0.0000

> <r_epik_Ionization_Penalty_Neutral>
  0.0000

> <r_epik_State_Penalty>
 -0.0000

> <r_epik_Charging_Adjusted_Penalty>
0

> <i_epik_Tot_Q>
0

> <i_epik_Tot_abs_Q>
0

> <s_epik_Chemistry_Notes>
This compound has an ester and may undergo hydrolysis at high or low pH.

> <s_lp_Force_Field>
OPLS3e

> <r_lp_Energy>
22.713626

> <b_lp_Chiralities_Consistent>
1

> <s_lp_Variant>
sdf/inactives_sanitized.sdf:162-1

$$$$
sdf/inactives_sanitized.sdf:163
                    3D
 Schrodinger Suite 2020-1.
 78 82  0  0  1  0            999 V2000
   -0.5522   -2.8540    2.6100 C   0  0  0  0  0  0
   -0.0336   -2.0708    1.3971 C   0  0  0  0  0  0
   -0.4644   -0.5888    1.4088 C   0  0  0  0  0  0
   -0.0353    0.1947    0.1387 C   0  0  2  0  0  0
    1.4272    0.2033   -0.0245 N   0  0  0  0  0  0
    2.1137   -0.4607   -0.9703 C   0  0  0  0  0  0
    1.5718   -1.0772   -1.8898 O   0  0  0  0  0  0
    3.6524   -0.3838   -0.8751 C   0  0  2  0  0  0
    4.3091    0.2157   -2.1215 C   0  0  0  0  0  0
    4.6379   -0.9765   -3.0094 C   0  0  2  0  0  0
    4.7674   -2.1942   -2.0891 C   0  0  0  0  0  0
    4.2332   -1.7393   -0.7957 N   0  0  0  0  0  0
    4.4993   -2.3492    0.3926 C   0  0  0  0  0  0
    4.2333   -1.7901    1.4608 O   0  0  0  0  0  0
    5.0923   -3.7953    0.4256 C   0  0  0  0  0  0
    6.5409   -3.7813    0.9127 C   0  0  0  0  0  0
    5.4614   -4.3016    1.8195 C   0  0  0  0  0  0
    4.6204   -4.8102   -0.6216 C   0  0  0  0  0  0
    5.5158   -5.3887   -1.5292 C   0  0  0  0  0  0
    5.0562   -6.2907   -2.4847 C   0  0  0  0  0  0
    3.7022   -6.6163   -2.5344 C   0  0  0  0  0  0
    3.1328   -7.7328   -3.7209 Cl  0  0  0  0  0  0
    2.8038   -6.0449   -1.6355 C   0  0  0  0  0  0
    3.2631   -5.1431   -0.6801 C   0  0  0  0  0  0
    6.1844   -0.7140   -4.0778 S   0  0  0  0  0  0
    7.2978   -0.3621   -3.1880 O   0  0  0  0  0  0
    6.3355   -1.8603   -4.9790 O   0  0  0  0  0  0
    5.7844    0.7596   -5.0560 C   0  0  0  0  0  0
    6.1912    1.9850   -4.5088 C   0  0  0  0  0  0
    5.9433    3.1857   -5.1653 C   0  0  0  0  0  0
    5.2825    3.1807   -6.3868 C   0  0  0  0  0  0
    4.8646    1.9756   -6.9435 C   0  0  0  0  0  0
    5.0908    0.7499   -6.2945 C   0  0  0  0  0  0
    4.5842   -0.5287   -6.9831 C   0  0  0  0  0  0
    3.7290   -0.2643   -7.9736 F   0  0  0  0  0  0
    5.6136   -1.1878   -7.5142 F   0  0  0  0  0  0
    3.9388   -1.3244   -6.1330 F   0  0  0  0  0  0
   -0.4840    1.6578    0.2046 C   0  0  0  0  0  0
    0.2683    2.6171    0.4177 O   0  0  0  0  0  0
   -2.0339    1.8982   -0.0458 C   0  0  0  0  0  0
   -2.7903    0.9747   -0.3522 O   0  0  0  0  0  0
   -2.3891    3.1867    0.1134 N   0  0  0  0  0  0
   -3.7209    3.7112   -0.1708 C   0  0  0  0  0  0
   -4.3669    4.6286    0.8409 C   0  0  0  0  0  0
   -4.9006    3.2296    0.6477 C   0  0  0  0  0  0
   -0.2254   -3.8936    2.5697 H   0  0  0  0  0  0
   -1.6421   -2.8515    2.6465 H   0  0  0  0  0  0
   -0.1840   -2.4277    3.5437 H   0  0  0  0  0  0
    1.0547   -2.1439    1.3751 H   0  0  0  0  0  0
   -0.3927   -2.5493    0.4849 H   0  0  0  0  0  0
   -1.5487   -0.5457    1.5244 H   0  0  0  0  0  0
   -0.0389   -0.1138    2.2953 H   0  0  0  0  0  0
   -0.5017   -0.2768   -0.7299 H   0  0  0  0  0  0
    1.9408    0.6632    0.7135 H   0  0  0  0  0  0
    3.8747    0.1969    0.0228 H   0  0  0  0  0  0
    3.7191    0.9927   -2.6112 H   0  0  0  0  0  0
    5.2257    0.7125   -1.8006 H   0  0  0  0  0  0
    3.8239   -1.1440   -3.7131 H   0  0  0  0  0  0
    4.2129   -3.0195   -2.5368 H   0  0  0  0  0  0
    5.8284   -2.4316   -1.9969 H   0  0  0  0  0  0
    7.2589   -4.4960    0.5120 H   0  0  0  0  0  0
    7.0236   -2.8342    1.1610 H   0  0  0  0  0  0
    5.4069   -5.3748    2.0056 H   0  0  0  0  0  0
    5.2050   -3.7323    2.7138 H   0  0  0  0  0  0
    6.5645   -5.1338   -1.5143 H   0  0  0  0  0  0
    5.7494   -6.7304   -3.1870 H   0  0  0  0  0  0
    1.7541   -6.2964   -1.6780 H   0  0  0  0  0  0
    2.5625   -4.6980    0.0121 H   0  0  0  0  0  0
    6.7059    2.0208   -3.5601 H   0  0  0  0  0  0
    6.2658    4.1188   -4.7274 H   0  0  0  0  0  0
    5.0921    4.1104   -6.9026 H   0  0  0  0  0  0
    4.3547    2.0115   -7.8950 H   0  0  0  0  0  0
   -1.6661    3.8636    0.3118 H   0  0  0  0  0  0
   -3.8915    3.9097   -1.2301 H   0  0  0  0  0  0
   -3.8238    4.8668    1.7560 H   0  0  0  0  0  0
   -4.9497    5.4733    0.4731 H   0  0  0  0  0  0
   -4.7321    2.4847    1.4262 H   0  0  0  0  0  0
   -5.8542    3.0877    0.1389 H   0  0  0  0  0  0
  1  2  1  0  0  0
  1 46  1  0  0  0
  1 47  1  0  0  0
  1 48  1  0  0  0
  2  3  1  0  0  0
  2 49  1  0  0  0
  2 50  1  0  0  0
  3  4  1  0  0  0
  3 51  1  0  0  0
  3 52  1  0  0  0
  4  5  1  0  0  0
  4 38  1  0  0  0
  4 53  1  0  0  0
  5  6  1  0  0  0
  5 54  1  0  0  0
  6  7  2  0  0  0
  6  8  1  0  0  0
  8  9  1  0  0  0
  8 12  1  0  0  0
  8 55  1  0  0  0
  9 10  1  0  0  0
  9 56  1  0  0  0
  9 57  1  0  0  0
 10 11  1  0  0  0
 10 25  1  0  0  0
 10 58  1  0  0  0
 11 12  1  0  0  0
 11 59  1  0  0  0
 11 60  1  0  0  0
 12 13  1  0  0  0
 13 14  2  0  0  0
 13 15  1  0  0  0
 15 16  1  0  0  0
 15 17  1  0  0  0
 15 18  1  0  0  0
 16 17  1  0  0  0
 16 61  1  0  0  0
 16 62  1  0  0  0
 17 63  1  0  0  0
 17 64  1  0  0  0
 18 19  2  0  0  0
 18 24  1  0  0  0
 19 20  1  0  0  0
 19 65  1  0  0  0
 20 21  2  0  0  0
 20 66  1  0  0  0
 21 22  1  0  0  0
 21 23  1  0  0  0
 23 24  2  0  0  0
 23 67  1  0  0  0
 24 68  1  0  0  0
 25 26  2  0  0  0
 25 27  2  0  0  0
 25 28  1  0  0  0
 28 29  2  0  0  0
 28 33  1  0  0  0
 29 30  1  0  0  0
 29 69  1  0  0  0
 30 31  2  0  0  0
 30 70  1  0  0  0
 31 32  1  0  0  0
 31 71  1  0  0  0
 32 33  2  0  0  0
 32 72  1  0  0  0
 33 34  1  0  0  0
 34 35  1  0  0  0
 34 36  1  0  0  0
 34 37  1  0  0  0
 38 39  2  0  0  0
 38 40  1  0  0  0
 40 41  2  0  0  0
 40 42  1  0  0  0
 42 43  1  0  0  0
 42 73  1  0  0  0
 43 44  1  0  0  0
 43 45  1  0  0  0
 43 74  1  0  0  0
 44 45  1  0  0  0
 44 75  1  0  0  0
 44 76  1  0  0  0
 45 77  1  0  0  0
 45 78  1  0  0  0
M  END
> <chembl_id>
CHEMBL3649383

> <chembl_pref_name>
None

> <i_m_ct_stereo_status>
1

> <s_m_source_file>
sdf/inactives_sanitized.sdf

> <i_m_source_file_index>
163

> <i_lp_mmshare_version>
49012

> <i_f3d_flags>
0

> <s_epik_input>
W0NIMl0xW0NIMl1bQ0hdMVtOSF1DKD1PKUMoPU8pW0NASF0oW0NIMl1bQ0gyXVtDSDNdKVtOSF1DKD1PKVtDQEBIXTJbQ0gyXVtDQEBIXShTKD1PKSg9TyljM1tjSF1bY0hdW2NIXVtjSF1jM0MoRikoRilGKVtDSDJdTjJDKD1PKUM0KFtDSDJdW0NIMl00KWM1W2NIXVtjSF1jKENsKVtjSF1bY0hdNQ==

> <s_epik_cmdline>
J2VwaWtfcHl0aG9uJywgJy1waHQnLCAnMC41JywgJy1waCcsICc3LjUnLCAnLW50JywgJy1tYScsICcyMDAnLCAnLWltYWUnLCAnPGluZmlsZS5tYWU+JywgJy1vbWFlJywgJzxvdXRmaWxlLm1hZT4n

> <r_lp_tautomer_probability>
1

> <r_epik_Ionization_Penalty>
  0.0000

> <r_epik_Ionization_Penalty_Charging>
  0.0000

> <r_epik_Ionization_Penalty_Neutral>
  0.0000

> <r_epik_State_Penalty>
 -0.0000

> <r_epik_Charging_Adjusted_Penalty>
0

> <i_epik_Tot_Q>
0

> <i_epik_Tot_abs_Q>
0

> <s_lp_Force_Field>
OPLS3e

> <r_lp_Energy>
61.767138

> <b_lp_Chiralities_Consistent>
1

> <s_lp_Variant>
sdf/inactives_sanitized.sdf:163-1

$$$$
sdf/inactives_sanitized.sdf:164
                    3D
 Schrodinger Suite 2020-1.
102106  0  0  1  0            999 V2000
   -8.2375    8.4581   -2.5302 C   0  0  0  0  0  0
   -7.8552    8.7059   -1.2102 C   0  0  0  0  0  0
   -7.0493    7.8459   -0.5343 N   0  0  0  0  0  0
   -6.6254    6.7250   -1.1865 C   0  0  0  0  0  0
   -7.0115    6.4879   -2.5174 C   0  0  0  0  0  0
   -7.8177    7.3491   -3.1926 N   0  0  0  0  0  0
   -5.7180    5.7873   -0.4298 C   0  0  0  0  0  0
   -4.9954    6.2006    0.4803 O   0  0  0  0  0  0
   -5.7620    4.4952   -0.8115 N   0  0  0  0  0  0
   -4.9603    3.4013   -0.2492 C   0  0  2  0  0  0
   -3.4826    3.5629   -0.6713 C   0  0  0  0  0  0
   -2.6020    3.7155    0.3308 N   0  0  0  0  0  0
   -3.1803    3.5015   -1.8641 O   0  0  0  0  0  0
   -1.1437    3.7447    0.1870 C   0  0  2  0  0  0
   -0.6352    2.3010    0.4796 C   0  0  0  0  0  0
   -0.0576    1.5638   -0.5075 N   0  0  0  0  0  0
   -0.7274    1.8838    1.6367 O   0  0  0  0  0  0
    0.4259    0.1868   -0.2948 C   0  0  1  0  0  0
   -0.0898    1.8724   -1.9418 C   0  0  0  0  0  0
   -0.3086    0.5116   -2.6222 C   0  0  1  0  0  0
    0.0407   -0.5673   -1.5881 C   0  0  2  0  0  0
   -1.2172   -1.4446   -1.4338 C   0  0  0  0  0  0
   -2.0002   -1.2293   -2.7255 C   0  0  0  0  0  0
   -1.7688    0.2467   -3.0371 C   0  0  0  0  0  0
    1.9319    0.1764    0.0705 C   0  0  0  0  0  0
    2.7698   -0.3198   -0.6837 O   0  0  0  0  0  0
    2.2593    0.7303    1.2530 N   0  0  0  0  0  0
    3.6209    0.9009    1.7745 C   0  0  2  0  0  0
    3.5860    0.2933    3.1763 C   0  0  0  0  0  0
    4.0481    2.3926    1.7498 C   0  0  0  0  0  0
    5.5294    2.6436    2.1007 C   0  0  0  0  0  0
    5.9138    4.1269    2.0185 C   0  0  0  0  0  0
    3.5722   -1.2954    3.2453 C   0  0  0  0  0  0
    3.6199    0.9647    4.2126 O   0  0  0  0  0  0
    3.5214   -1.9871    2.2268 O   0  0  0  0  0  0
    3.6338   -1.7562    4.5082 N   0  0  0  0  0  0
    3.5506   -3.1662    4.8738 C   0  0  0  0  0  0
    4.5516   -3.7122    5.8654 C   0  0  0  0  0  0
    4.6352   -4.1192    4.4140 C   0  0  0  0  0  0
   -5.5273    1.9919   -0.6141 C   0  0  0  0  0  0
   -7.0190    1.8159   -0.2357 C   0  0  0  0  0  0
   -7.5705    0.5274   -0.8827 C   0  0  0  0  0  0
   -6.7533   -0.7120   -0.4374 C   0  0  0  0  0  0
   -5.2225   -0.5142   -0.5728 C   0  0  0  0  0  0
   -4.7794    0.8168    0.0681 C   0  0  0  0  0  0
   -0.4862    4.8832    1.0613 C   0  0  0  0  0  0
   -0.9491    6.2621    0.5188 C   0  0  0  0  0  0
    1.0605    4.8457    0.9456 C   0  0  0  0  0  0
   -0.8747    4.8275    2.5643 C   0  0  0  0  0  0
   -8.8778    9.1421   -3.0677 H   0  0  0  0  0  0
   -8.1867    9.5890   -0.6843 H   0  0  0  0  0  0
   -6.6806    5.6179   -3.0664 H   0  0  0  0  0  0
   -6.3821    4.2325   -1.5631 H   0  0  0  0  0  0
   -5.0291    3.4951    0.8379 H   0  0  0  0  0  0
   -2.9434    3.7566    1.2801 H   0  0  0  0  0  0
   -0.9030    4.0161   -0.8389 H   0  0  0  0  0  0
   -0.0304   -0.2699    0.5857 H   0  0  0  0  0  0
    0.9013    2.2168   -2.2393 H   0  0  0  0  0  0
   -0.8298    2.5902   -2.2903 H   0  0  0  0  0  0
    0.3474    0.4266   -3.4905 H   0  0  0  0  0  0
    0.8463   -1.2003   -1.9652 H   0  0  0  0  0  0
   -0.9659   -2.4965   -1.2925 H   0  0  0  0  0  0
   -1.8185   -1.1353   -0.5763 H   0  0  0  0  0  0
   -1.5915   -1.8522   -3.5232 H   0  0  0  0  0  0
   -3.0561   -1.4774   -2.6219 H   0  0  0  0  0  0
   -1.9372    0.4607   -4.0931 H   0  0  0  0  0  0
   -2.4637    0.8641   -2.4647 H   0  0  0  0  0  0
    1.5270    1.1593    1.8015 H   0  0  0  0  0  0
    4.3483    0.3550    1.1684 H   0  0  0  0  0  0
    3.8633    2.7837    0.7475 H   0  0  0  0  0  0
    3.4033    2.9790    2.4073 H   0  0  0  0  0  0
    5.7463    2.2815    3.1059 H   0  0  0  0  0  0
    6.1674    2.0744    1.4232 H   0  0  0  0  0  0
    6.9678    4.2695    2.2583 H   0  0  0  0  0  0
    5.3312    4.7256    2.7194 H   0  0  0  0  0  0
    5.7453    4.5244    1.0172 H   0  0  0  0  0  0
    3.6159   -1.0880    5.2654 H   0  0  0  0  0  0
    2.5284   -3.5461    4.9090 H   0  0  0  0  0  0
    5.3087   -3.0403    6.2713 H   0  0  0  0  0  0
    4.2044   -4.4376    6.6013 H   0  0  0  0  0  0
    5.4492   -3.7327    3.7995 H   0  0  0  0  0  0
    4.3452   -5.1302    4.1273 H   0  0  0  0  0  0
   -5.4360    1.9004   -1.6998 H   0  0  0  0  0  0
   -7.1610    1.8445    0.8461 H   0  0  0  0  0  0
   -7.6058    2.6570   -0.6058 H   0  0  0  0  0  0
   -8.6205    0.3949   -0.6196 H   0  0  0  0  0  0
   -7.5364    0.6172   -1.9696 H   0  0  0  0  0  0
   -6.9878   -0.9312    0.6054 H   0  0  0  0  0  0
   -7.0669   -1.5885   -1.0056 H   0  0  0  0  0  0
   -4.6928   -1.3489   -0.1122 H   0  0  0  0  0  0
   -4.9493   -0.5211   -1.6285 H   0  0  0  0  0  0
   -3.7027    0.9138   -0.0743 H   0  0  0  0  0  0
   -4.9094    0.8348    1.1516 H   0  0  0  0  0  0
   -0.5235    7.0850    1.0953 H   0  0  0  0  0  0
   -2.0330    6.3764    0.5627 H   0  0  0  0  0  0
   -0.6438    6.4122   -0.5178 H   0  0  0  0  0  0
    1.3920    4.9987   -0.0824 H   0  0  0  0  0  0
    1.4746    3.8988    1.2906 H   0  0  0  0  0  0
    1.5259    5.6261    1.5495 H   0  0  0  0  0  0
   -0.4389    5.6628    3.1146 H   0  0  0  0  0  0
   -0.5155    3.9254    3.0573 H   0  0  0  0  0  0
   -1.9538    4.8857    2.7105 H   0  0  0  0  0  0
  1  6  2  0  0  0
  1  2  1  0  0  0
  1 50  1  0  0  0
  2  3  2  0  0  0
  2 51  1  0  0  0
  3  4  1  0  0  0
  4  7  1  0  0  0
  4  5  2  0  0  0
  5  6  1  0  0  0
  5 52  1  0  0  0
  7  8  2  0  0  0
  7  9  1  0  0  0
  9 10  1  0  0  0
  9 53  1  0  0  0
 10 11  1  0  0  0
 10 40  1  0  0  0
 10 54  1  0  0  0
 11 13  2  0  0  0
 11 12  1  0  0  0
 12 14  1  0  0  0
 12 55  1  0  0  0
 14 15  1  0  0  0
 14 46  1  0  0  0
 14 56  1  0  0  0
 15 16  1  0  0  0
 15 17  2  0  0  0
 16 18  1  0  0  0
 16 19  1  0  0  0
 18 25  1  0  0  0
 18 21  1  0  0  0
 18 57  1  0  0  0
 19 20  1  0  0  0
 19 58  1  0  0  0
 19 59  1  0  0  0
 20 21  1  0  0  0
 20 24  1  0  0  0
 20 60  1  0  0  0
 21 22  1  0  0  0
 21 61  1  0  0  0
 22 23  1  0  0  0
 22 62  1  0  0  0
 22 63  1  0  0  0
 23 24  1  0  0  0
 23 64  1  0  0  0
 23 65  1  0  0  0
 24 66  1  0  0  0
 24 67  1  0  0  0
 25 26  2  0  0  0
 25 27  1  0  0  0
 27 28  1  0  0  0
 27 68  1  0  0  0
 28 29  1  0  0  0
 28 30  1  0  0  0
 28 69  1  0  0  0
 29 33  1  0  0  0
 29 34  2  0  0  0
 30 31  1  0  0  0
 30 70  1  0  0  0
 30 71  1  0  0  0
 31 32  1  0  0  0
 31 72  1  0  0  0
 31 73  1  0  0  0
 32 74  1  0  0  0
 32 75  1  0  0  0
 32 76  1  0  0  0
 33 35  2  0  0  0
 33 36  1  0  0  0
 36 37  1  0  0  0
 36 77  1  0  0  0
 37 38  1  0  0  0
 37 39  1  0  0  0
 37 78  1  0  0  0
 38 39  1  0  0  0
 38 79  1  0  0  0
 38 80  1  0  0  0
 39 81  1  0  0  0
 39 82  1  0  0  0
 40 41  1  0  0  0
 40 45  1  0  0  0
 40 83  1  0  0  0
 41 42  1  0  0  0
 41 84  1  0  0  0
 41 85  1  0  0  0
 42 43  1  0  0  0
 42 86  1  0  0  0
 42 87  1  0  0  0
 43 44  1  0  0  0
 43 88  1  0  0  0
 43 89  1  0  0  0
 44 45  1  0  0  0
 44 90  1  0  0  0
 44 91  1  0  0  0
 45 92  1  0  0  0
 45 93  1  0  0  0
 46 47  1  0  0  0
 46 48  1  0  0  0
 46 49  1  0  0  0
 47 94  1  0  0  0
 47 95  1  0  0  0
 47 96  1  0  0  0
 48 97  1  0  0  0
 48 98  1  0  0  0
 48 99  1  0  0  0
 49100  1  0  0  0
 49101  1  0  0  0
 49102  1  0  0  0
M  END
> <chembl_id>
CHEMBL231813

> <chembl_pref_name>
TELAPREVIR

> <i_m_ct_stereo_status>
1

> <s_m_source_file>
sdf/inactives_sanitized.sdf

> <i_m_source_file_index>
164

> <i_lp_mmshare_version>
49012

> <i_f3d_flags>
0

> <s_epik_input>
W2NIXTFuW2NIXVtjSF1uYzFDKD1PKVtOSF1bQ0BASF0oW0NIXTJbQ0gyXVtDSDJdW0NIMl1bQ0gyXVtDSDJdMilDKD1PKVtOSF1bQ0BASF0oQyhbQ0gzXSkoW0NIM10pW0NIM10pQyg9TylOKFtDSDJdMylbQ0BASF0oW0NASF0oW0NASF0zNClbQ0gyXVtDSDJdW0NIMl00KUMoPU8pW05IXVtDQEBIXShbQ0gyXVtDSDJdW0NIM10pQyg9TylDKD1PKVtOSF1bQ0hdNVtDSDJdW0NIMl01

> <s_epik_cmdline>
J2VwaWtfcHl0aG9uJywgJy1waHQnLCAnMC41JywgJy1waCcsICc3LjUnLCAnLW50JywgJy1tYScsICcyMDAnLCAnLWltYWUnLCAnPGluZmlsZS5tYWU+JywgJy1vbWFlJywgJzxvdXRmaWxlLm1hZT4n

> <r_lp_tautomer_probability>
1

> <r_epik_Ionization_Penalty>
  0.0000

> <r_epik_Ionization_Penalty_Charging>
  0.0000

> <r_epik_Ionization_Penalty_Neutral>
  0.0000

> <r_epik_State_Penalty>
 -0.0000

> <r_epik_Charging_Adjusted_Penalty>
0

> <i_epik_Tot_Q>
0

> <i_epik_Tot_abs_Q>
0

> <s_lp_Force_Field>
OPLS3e

> <r_lp_Energy>
54.676828

> <b_lp_Chiralities_Consistent>
1

> <s_lp_Variant>
sdf/inactives_sanitized.sdf:164-1

$$$$
sdf/inactives_sanitized.sdf:165
                    3D
 Schrodinger Suite 2020-1.
 44 47  0  0  1  0            999 V2000
   -0.7243    1.1499    0.3786 N   0  0  0  0  0  0
   -0.0812   -0.0183    0.0966 C   0  0  0  0  0  0
   -0.7571   -1.2271   -0.1377 C   0  0  0  0  0  0
   -2.0783    1.1785    0.4535 C   0  0  0  0  0  0
   -3.1539   -2.1189   -0.2187 N   0  0  0  0  0  0
   -4.3413   -1.4537   -0.0065 C   0  0  0  0  0  0
   -4.2036   -0.1819    0.2654 N   0  0  0  0  0  0
   -2.8466    0.0216    0.2401 C   0  0  0  0  0  0
   -2.1542   -1.1802   -0.0588 C   0  0  0  0  0  0
   -2.6568    2.4768    0.7663 C   0  0  0  0  0  0
   -3.1171    3.5090    1.0151 N   0  0  0  0  0  0
    1.4100    0.0625    0.0381 C   0  0  0  0  0  0
    2.2041   -1.0047    0.4773 C   0  0  0  0  0  0
    3.6044   -0.9499    0.4348 C   0  0  0  0  0  0
    4.2385    0.2022   -0.0611 C   0  0  0  0  0  0
    3.4476    1.2738   -0.5045 C   0  0  0  0  0  0
    2.0584    1.2020   -0.4539 C   0  0  0  0  0  0
    4.4374   -2.1384    0.9284 C   0  0  0  0  0  0
    5.2072   -2.5919   -0.0618 F   0  0  0  0  0  0
    5.2218   -1.7512    1.9350 F   0  0  0  0  0  0
    3.6857   -3.1530    1.3608 F   0  0  0  0  0  0
   -2.9934   -3.5286   -0.5297 C   0  0  0  0  0  0
    5.6221    0.2163   -0.0839 O   0  0  0  0  0  0
    6.3130    1.3635   -0.5732 C   0  0  0  0  0  0
    7.8121    1.1158   -0.5227 C   0  0  0  0  0  0
    8.6846    2.0880   -0.0204 C   0  0  0  0  0  0
   10.0304    1.9164    0.0390 N   0  0  0  0  0  0
   10.5398    0.7431   -0.4165 C   0  0  0  0  0  0
    9.7437   -0.2787   -0.9371 C   0  0  0  0  0  0
    8.3619   -0.0847   -0.9895 C   0  0  0  0  0  0
   -0.2326   -2.1414   -0.3733 H   0  0  0  0  0  0
   -5.2776   -1.9890   -0.0732 H   0  0  0  0  0  0
    1.7202   -1.8872    0.8692 H   0  0  0  0  0  0
    3.8920    2.1768   -0.8941 H   0  0  0  0  0  0
    1.4841    2.0460   -0.8080 H   0  0  0  0  0  0
   -2.4415   -3.6308   -1.4649 H   0  0  0  0  0  0
   -3.9681   -4.0077   -0.6329 H   0  0  0  0  0  0
   -2.4344   -4.0132    0.2717 H   0  0  0  0  0  0
    6.0342    1.5726   -1.6074 H   0  0  0  0  0  0
    6.0581    2.2366    0.0310 H   0  0  0  0  0  0
    8.3114    3.0326    0.3479 H   0  0  0  0  0  0
   11.6124    0.6297   -0.3591 H   0  0  0  0  0  0
   10.1855   -1.1985   -1.2910 H   0  0  0  0  0  0
    7.7251   -0.8611   -1.3895 H   0  0  0  0  0  0
  1  2  2  0  0  0
  1  4  1  0  0  0
  2 12  1  0  0  0
  2  3  1  0  0  0
  3  9  2  0  0  0
  3 31  1  0  0  0
  4  8  2  0  0  0
  4 10  1  0  0  0
  5  6  1  0  0  0
  5  9  1  0  0  0
  5 22  1  0  0  0
  6  7  2  0  0  0
  6 32  1  0  0  0
  7  8  1  0  0  0
  8  9  1  0  0  0
 10 11  3  0  0  0
 12 17  1  0  0  0
 12 13  2  0  0  0
 13 14  1  0  0  0
 13 33  1  0  0  0
 14 15  2  0  0  0
 14 18  1  0  0  0
 15 16  1  0  0  0
 15 23  1  0  0  0
 16 17  2  0  0  0
 16 34  1  0  0  0
 17 35  1  0  0  0
 18 19  1  0  0  0
 18 20  1  0  0  0
 18 21  1  0  0  0
 22 36  1  0  0  0
 22 37  1  0  0  0
 22 38  1  0  0  0
 23 24  1  0  0  0
 24 25  1  0  0  0
 24 39  1  0  0  0
 24 40  1  0  0  0
 25 26  2  0  0  0
 25 30  1  0  0  0
 26 27  1  0  0  0
 26 41  1  0  0  0
 27 28  2  0  0  0
 28 29  1  0  0  0
 28 42  1  0  0  0
 29 30  2  0  0  0
 29 43  1  0  0  0
 30 44  1  0  0  0
M  END
> <chembl_id>
CHEMBL1208976

> <chembl_pref_name>
None

> <s_m_source_file>
sdf/inactives_sanitized.sdf

> <i_m_source_file_index>
165

> <i_lp_mmshare_version>
49012

> <i_m_ct_stereo_status>
1

> <i_f3d_flags>
0

> <s_epik_input>
bjFbY0hdbihbQ0gzXSljKGMxMilbY0hdYyhuYzJDI04pLWMzW2NIXWMoQyhGKShGKUYpYyhbY0hdW2NIXTMpT1tDSDJdYzRbY0hdbltjSF1bY0hdW2NIXTQ=

> <s_epik_cmdline>
J2VwaWtfcHl0aG9uJywgJy1waHQnLCAnMC41JywgJy1waCcsICc3LjUnLCAnLW50JywgJy1tYScsICcyMDAnLCAnLWltYWUnLCAnPGluZmlsZS5tYWU+JywgJy1vbWFlJywgJzxvdXRmaWxlLm1hZT4n

> <r_lp_tautomer_probability>
1

> <r_epik_Ionization_Penalty>
  0.0015

> <r_epik_Ionization_Penalty_Charging>
  0.0000

> <r_epik_Ionization_Penalty_Neutral>
  0.0015

> <r_epik_State_Penalty>
 -0.0000

> <r_epik_Charging_Adjusted_Penalty>
2.10485508124941e-07

> <i_epik_Tot_Q>
0

> <i_epik_Tot_abs_Q>
0

> <s_lp_Force_Field>
OPLS3e

> <r_lp_Energy>
40.02269

> <b_lp_Chiralities_Consistent>
1

> <s_lp_Variant>
sdf/inactives_sanitized.sdf:165-1

$$$$
sdf/inactives_sanitized.sdf:166
                    3D
 Schrodinger Suite 2020-1.
 54 55  0  0  1  0            999 V2000
   -0.5424    0.6647   -5.0778 C   0  0  0  0  0  0
   -1.1093   -0.5246   -4.6280 C   0  0  0  0  0  0
   -0.9462   -0.9053   -3.2989 C   0  0  0  0  0  0
   -0.2194   -0.1056   -2.4147 C   0  0  0  0  0  0
    0.3467    1.0928   -2.8804 C   0  0  0  0  0  0
    0.1848    1.4744   -4.2097 C   0  0  0  0  0  0
   -0.1188   -0.5693   -1.1136 O   0  0  0  0  0  0
    0.6229    0.1528   -0.1159 C   0  0  2  0  0  0
    2.1487   -0.0237   -0.3014 C   0  0  0  0  0  0
    2.5771   -1.0884   -1.0066 N   0  0  0  0  0  0
    2.9129    0.7985    0.2058 O   0  0  0  0  0  0
    0.1775   -0.3620    1.2754 C   0  0  0  0  0  0
   -1.3389   -0.2409    1.5730 C   0  0  0  0  0  0
   -1.8455    1.2144    1.5375 C   0  0  0  0  0  0
   -1.6900   -0.9068    2.9161 C   0  0  0  0  0  0
    3.9751   -1.4332   -1.2758 C   0  0  0  0  0  0
    4.6337   -2.2843   -0.1719 C   0  0  0  0  0  0
    4.8316   -1.5683    1.0843 N   0  0  0  0  0  0
    5.4438   -2.1781    2.1921 C   0  0  0  0  0  0
    5.3709   -1.5118    3.4159 C   0  0  0  0  0  0
    5.9572   -2.0602    4.5535 C   0  0  0  0  0  0
    6.6302   -3.2896    4.4794 C   0  0  0  0  0  0
    6.7029   -3.9513    3.2536 C   0  0  0  0  0  0
    6.1161   -3.4044    2.1158 C   0  0  0  0  0  0
    7.2413   -3.9098    5.5524 O   0  0  0  0  0  0
    7.1938   -3.2885    6.8324 C   0  0  0  0  0  0
   -0.6678    0.9618   -6.1086 H   0  0  0  0  0  0
   -1.6735   -1.1479   -5.3062 H   0  0  0  0  0  0
   -1.3881   -1.8278   -2.9515 H   0  0  0  0  0  0
    0.9166    1.7396   -2.2317 H   0  0  0  0  0  0
    0.6219    2.3957   -4.5659 H   0  0  0  0  0  0
    0.3856    1.2161   -0.1642 H   0  0  0  0  0  0
    1.8826   -1.7037   -1.4053 H   0  0  0  0  0  0
    0.7279    0.1714    2.0534 H   0  0  0  0  0  0
    0.4672   -1.4106    1.3727 H   0  0  0  0  0  0
   -1.8778   -0.7907    0.7997 H   0  0  0  0  0  0
   -1.3020    1.8438    2.2432 H   0  0  0  0  0  0
   -2.9043    1.2700    1.7931 H   0  0  0  0  0  0
   -1.7387    1.6547    0.5461 H   0  0  0  0  0  0
   -1.1980   -0.4061    3.7508 H   0  0  0  0  0  0
   -1.3850   -1.9537    2.9315 H   0  0  0  0  0  0
   -2.7645   -0.8813    3.1015 H   0  0  0  0  0  0
    4.0092   -1.9818   -2.2173 H   0  0  0  0  0  0
    4.5581   -0.5252   -1.4442 H   0  0  0  0  0  0
    4.0525   -3.1901    0.0078 H   0  0  0  0  0  0
    5.6094   -2.6280   -0.5175 H   0  0  0  0  0  0
    4.1906   -0.8117    1.2794 H   0  0  0  0  0  0
    4.8576   -0.5637    3.4929 H   0  0  0  0  0  0
    5.8793   -1.5164    5.4825 H   0  0  0  0  0  0
    7.2187   -4.8978    3.1828 H   0  0  0  0  0  0
    6.1938   -3.9462    1.1854 H   0  0  0  0  0  0
    7.7227   -3.9106    7.5542 H   0  0  0  0  0  0
    6.1670   -3.1764    7.1837 H   0  0  0  0  0  0
    7.6779   -2.3109    6.8223 H   0  0  0  0  0  0
  1  2  2  0  0  0
  1  6  1  0  0  0
  1 27  1  0  0  0
  2  3  1  0  0  0
  2 28  1  0  0  0
  3  4  2  0  0  0
  3 29  1  0  0  0
  4  7  1  0  0  0
  4  5  1  0  0  0
  5  6  2  0  0  0
  5 30  1  0  0  0
  6 31  1  0  0  0
  7  8  1  0  0  0
  8  9  1  0  0  0
  8 12  1  0  0  0
  8 32  1  0  0  0
  9 10  1  0  0  0
  9 11  2  0  0  0
 10 16  1  0  0  0
 10 33  1  0  0  0
 12 13  1  0  0  0
 12 34  1  0  0  0
 12 35  1  0  0  0
 13 14  1  0  0  0
 13 15  1  0  0  0
 13 36  1  0  0  0
 14 37  1  0  0  0
 14 38  1  0  0  0
 14 39  1  0  0  0
 15 40  1  0  0  0
 15 41  1  0  0  0
 15 42  1  0  0  0
 16 17  1  0  0  0
 16 43  1  0  0  0
 16 44  1  0  0  0
 17 18  1  0  0  0
 17 45  1  0  0  0
 17 46  1  0  0  0
 18 19  1  0  0  0
 18 47  1  0  0  0
 19 20  2  0  0  0
 19 24  1  0  0  0
 20 21  1  0  0  0
 20 48  1  0  0  0
 21 22  2  0  0  0
 21 49  1  0  0  0
 22 23  1  0  0  0
 22 25  1  0  0  0
 23 24  2  0  0  0
 23 50  1  0  0  0
 24 51  1  0  0  0
 25 26  1  0  0  0
 26 52  1  0  0  0
 26 53  1  0  0  0
 26 54  1  0  0  0
M  END
> <chembl_id>
CHEMBL205923

> <chembl_pref_name>
None

> <s_m_source_file>
sdf/inactives_sanitized.sdf

> <i_m_source_file_index>
166

> <i_lp_mmshare_version>
49012

> <i_m_ct_stereo_status>
1

> <i_f3d_flags>
0

> <s_epik_input>
W2NIXTFbY0hdW2NIXVtjSF1bY0hdYzFPW0NAQEhdKFtDSDJdW0NIXShbQ0gzXSlbQ0gzXSlDKD1PKVtOSF1bQ0gyXVtDSDJdW05IXWMyW2NIXVtjSF1jKFtjSF1bY0hdMilPW0NIM10=

> <s_epik_cmdline>
J2VwaWtfcHl0aG9uJywgJy1waHQnLCAnMC41JywgJy1waCcsICc3LjUnLCAnLW50JywgJy1tYScsICcyMDAnLCAnLWltYWUnLCAnPGluZmlsZS5tYWU+JywgJy1vbWFlJywgJzxvdXRmaWxlLm1hZT4n

> <r_lp_tautomer_probability>
1

> <r_epik_Ionization_Penalty>
  0.0016

> <r_epik_Ionization_Penalty_Charging>
  0.0000

> <r_epik_Ionization_Penalty_Neutral>
  0.0016

> <r_epik_State_Penalty>
 -0.0000

> <r_epik_Charging_Adjusted_Penalty>
0

> <i_epik_Tot_Q>
0

> <i_epik_Tot_abs_Q>
0

> <s_lp_Force_Field>
OPLS3e

> <r_lp_Energy>
31.634777

> <b_lp_Chiralities_Consistent>
1

> <s_lp_Variant>
sdf/inactives_sanitized.sdf:166-1

$$$$
sdf/inactives_sanitized.sdf:167
                    3D
 Schrodinger Suite 2020-1.
 36 37  0  0  1  0            999 V2000
   -0.7348    1.0679    0.0388 C   0  0  0  0  0  0
   -0.0710   -0.1691   -0.0197 C   0  0  0  0  0  0
   -0.8356   -1.3444   -0.0718 C   0  0  0  0  0  0
   -2.2267   -1.2916   -0.0674 C   0  0  0  0  0  0
   -2.9090   -0.0698   -0.0110 C   0  0  0  0  0  0
   -2.1364    1.1013    0.0441 C   0  0  0  0  0  0
    0.0668    2.3732    0.0981 C   0  0  0  0  0  0
    0.8487    2.3723    1.1785 F   0  0  0  0  0  0
    0.8372    2.4780   -0.9855 F   0  0  0  0  0  0
   -0.7099    3.4571    0.1554 F   0  0  0  0  0  0
   -4.4082   -0.0223   -0.0072 C   0  0  0  0  0  0
   -5.1977   -1.0593   -0.5317 C   0  0  0  0  0  0
   -6.5889   -0.9434   -0.5029 C   0  0  0  0  0  0
   -7.1750    0.1987    0.0428 C   0  0  0  0  0  0
   -6.3355    1.1959    0.5420 C   0  0  0  0  0  0
   -4.9818    1.0984    0.5197 N   0  0  0  0  0  0
   -6.8714    2.4163    1.1220 C   0  0  0  0  0  0
   -7.2990    3.3876    1.5837 N   0  0  0  0  0  0
    1.3133   -0.1599   -0.0233 O   0  0  0  0  0  0
    2.0316   -1.3903   -0.0389 C   0  0  0  0  0  0
    3.5352   -1.0800   -0.0013 C   0  0  0  0  0  0
    4.4056   -2.3467   -0.0032 C   0  0  0  0  0  0
    5.7771   -2.0145    0.0275 O   0  0  0  0  0  0
   -0.3683   -2.3162   -0.1145 H   0  0  0  0  0  0
   -2.7675   -2.2255   -0.0962 H   0  0  0  0  0  0
   -2.6368    2.0579    0.0838 H   0  0  0  0  0  0
   -4.7546   -1.9416   -0.9685 H   0  0  0  0  0  0
   -7.2079   -1.7323   -0.9041 H   0  0  0  0  0  0
   -8.2510    0.2994    0.0698 H   0  0  0  0  0  0
    1.7577   -1.9964    0.8269 H   0  0  0  0  0  0
    1.7915   -1.9539   -0.9425 H   0  0  0  0  0  0
    3.7930   -0.4588   -0.8606 H   0  0  0  0  0  0
    3.7554   -0.4878    0.8883 H   0  0  0  0  0  0
    4.1573   -2.9818    0.8481 H   0  0  0  0  0  0
    4.1906   -2.9562   -0.8817 H   0  0  0  0  0  0
    6.2892   -2.8266    0.0219 H   0  0  0  0  0  0
  1  6  2  0  0  0
  1  2  1  0  0  0
  1  7  1  0  0  0
  2 19  1  0  0  0
  2  3  2  0  0  0
  3  4  1  0  0  0
  3 24  1  0  0  0
  4  5  2  0  0  0
  4 25  1  0  0  0
  5  6  1  0  0  0
  5 11  1  0  0  0
  6 26  1  0  0  0
  7  8  1  0  0  0
  7  9  1  0  0  0
  7 10  1  0  0  0
 11 12  2  0  0  0
 11 16  1  0  0  0
 12 13  1  0  0  0
 12 27  1  0  0  0
 13 14  2  0  0  0
 13 28  1  0  0  0
 14 15  1  0  0  0
 14 29  1  0  0  0
 15 16  2  0  0  0
 15 17  1  0  0  0
 17 18  3  0  0  0
 19 20  1  0  0  0
 20 21  1  0  0  0
 20 30  1  0  0  0
 20 31  1  0  0  0
 21 22  1  0  0  0
 21 32  1  0  0  0
 21 33  1  0  0  0
 22 23  1  0  0  0
 22 34  1  0  0  0
 22 35  1  0  0  0
 23 36  1  0  0  0
M  END
> <chembl_id>
CHEMBL1210763

> <chembl_pref_name>
None

> <s_m_source_file>
sdf/inactives_sanitized.sdf

> <i_m_source_file_index>
167

> <i_lp_mmshare_version>
49012

> <i_m_ct_stereo_status>
1

> <i_f3d_flags>
0

> <s_epik_input>
W09IXVtDSDJdW0NIMl1bQ0gyXU9jKGMxQyhGKShGKUYpW2NIXVtjSF1jKFtjSF0xKS1jMltjSF1bY0hdW2NIXWMobjIpQyNO

> <s_epik_cmdline>
J2VwaWtfcHl0aG9uJywgJy1waHQnLCAnMC41JywgJy1waCcsICc3LjUnLCAnLW50JywgJy1tYScsICcyMDAnLCAnLWltYWUnLCAnPGluZmlsZS5tYWU+JywgJy1vbWFlJywgJzxvdXRmaWxlLm1hZT4n

> <r_lp_tautomer_probability>
1

> <r_epik_Ionization_Penalty>
  0.0000

> <r_epik_Ionization_Penalty_Charging>
  0.0000

> <r_epik_Ionization_Penalty_Neutral>
  0.0000

> <r_epik_State_Penalty>
 -0.0000

> <r_epik_Charging_Adjusted_Penalty>
0

> <i_epik_Tot_Q>
0

> <i_epik_Tot_abs_Q>
0

> <s_lp_Force_Field>
OPLS3e

> <r_lp_Energy>
29.109078

> <b_lp_Chiralities_Consistent>
1

> <s_lp_Variant>
sdf/inactives_sanitized.sdf:167-1

$$$$
sdf/inactives_sanitized.sdf:168
                    3D
 Schrodinger Suite 2020-1.
 33 34  0  0  1  0            999 V2000
   -2.7093    0.0160   -0.0231 N   0  0  0  0  0  0
   -2.1025   -1.2073    0.0282 C   0  0  0  0  0  0
   -0.6998   -1.3095    0.0610 C   0  0  0  0  0  0
    0.0423   -0.1219    0.0541 C   0  0  0  0  0  0
   -0.5455    1.1038    0.0111 N   0  0  0  0  0  0
   -1.9007    1.1059   -0.0270 C   0  0  0  0  0  0
   -2.5518    2.4033   -0.0778 C   0  0  0  0  0  0
   -3.0704    3.4373   -0.1184 N   0  0  0  0  0  0
   -3.0029   -2.4082    0.0262 C   0  0  0  0  0  0
    1.5636   -0.1394    0.0968 C   0  0  0  0  0  0
    2.1359    0.3738    1.4320 C   0  0  0  0  0  0
    3.6685    0.3204    1.4833 C   0  0  0  0  0  0
   -2.5458   -3.6575    0.4798 C   0  0  0  0  0  0
   -3.3749   -4.7828    0.4825 C   0  0  0  0  0  0
   -4.6890   -4.6722    0.0270 C   0  0  0  0  0  0
   -5.1673   -3.4451   -0.4235 C   0  0  0  0  0  0
   -4.3332   -2.3278   -0.4230 C   0  0  0  0  0  0
   -2.8400   -6.1148    0.9761 C   0  0  0  0  0  0
   -0.1957   -2.2639    0.0837 H   0  0  0  0  0  0
    1.9190   -1.1547   -0.0871 H   0  0  0  0  0  0
    1.9430    0.4621   -0.7311 H   0  0  0  0  0  0
    1.8102    1.4006    1.6049 H   0  0  0  0  0  0
    1.7320   -0.2185    2.2544 H   0  0  0  0  0  0
    4.0384    0.6842    2.4423 H   0  0  0  0  0  0
    4.1128    0.9373    0.7016 H   0  0  0  0  0  0
    4.0333   -0.6989    1.3538 H   0  0  0  0  0  0
   -1.5378   -3.7692    0.8499 H   0  0  0  0  0  0
   -5.3423   -5.5326    0.0219 H   0  0  0  0  0  0
   -6.1849   -3.3590   -0.7751 H   0  0  0  0  0  0
   -4.7359   -1.3932   -0.7853 H   0  0  0  0  0  0
   -3.5598   -6.9237    0.8430 H   0  0  0  0  0  0
   -2.5789   -6.0486    2.0326 H   0  0  0  0  0  0
   -1.9327   -6.3790    0.4316 H   0  0  0  0  0  0
  1  6  2  0  0  0
  1  2  1  0  0  0
  2  9  1  0  0  0
  2  3  2  0  0  0
  3  4  1  0  0  0
  3 19  1  0  0  0
  4  5  2  0  0  0
  4 10  1  0  0  0
  5  6  1  0  0  0
  6  7  1  0  0  0
  7  8  3  0  0  0
  9 13  2  0  0  0
  9 17  1  0  0  0
 10 11  1  0  0  0
 10 20  1  0  0  0
 10 21  1  0  0  0
 11 12  1  0  0  0
 11 22  1  0  0  0
 11 23  1  0  0  0
 12 24  1  0  0  0
 12 25  1  0  0  0
 12 26  1  0  0  0
 13 14  1  0  0  0
 13 27  1  0  0  0
 14 15  2  0  0  0
 14 18  1  0  0  0
 15 16  1  0  0  0
 15 28  1  0  0  0
 16 17  2  0  0  0
 16 29  1  0  0  0
 17 30  1  0  0  0
 18 31  1  0  0  0
 18 32  1  0  0  0
 18 33  1  0  0  0
M  END
> <chembl_id>
CHEMBL1082859

> <chembl_pref_name>
None

> <s_m_source_file>
sdf/inactives_sanitized.sdf

> <i_m_source_file_index>
168

> <i_lp_mmshare_version>
49012

> <i_m_ct_stereo_status>
1

> <i_f3d_flags>
0

> <s_epik_input>
W0NIM11bQ0gyXVtDSDJdYyhbY0hdMSluYyhDI04pbmMxLWMyW2NIXWMoW0NIM10pW2NIXVtjSF1bY0hdMg==

> <s_epik_cmdline>
J2VwaWtfcHl0aG9uJywgJy1waHQnLCAnMC41JywgJy1waCcsICc3LjUnLCAnLW50JywgJy1tYScsICcyMDAnLCAnLWltYWUnLCAnPGluZmlsZS5tYWU+JywgJy1vbWFlJywgJzxvdXRmaWxlLm1hZT4n

> <r_lp_tautomer_probability>
1

> <r_epik_Ionization_Penalty>
  0.0000

> <r_epik_Ionization_Penalty_Charging>
  0.0000

> <r_epik_Ionization_Penalty_Neutral>
  0.0000

> <r_epik_State_Penalty>
 -0.0000

> <r_epik_Charging_Adjusted_Penalty>
0

> <i_epik_Tot_Q>
0

> <i_epik_Tot_abs_Q>
0

> <s_lp_Force_Field>
OPLS3e

> <r_lp_Energy>
25.115997

> <b_lp_Chiralities_Consistent>
1

> <s_lp_Variant>
sdf/inactives_sanitized.sdf:168-1

$$$$
sdf/inactives_sanitized.sdf:169
                    3D
 Schrodinger Suite 2020-1.
 39 40  0  0  1  0            999 V2000
   -2.2652    1.2371   -0.1200 C   0  0  0  0  0  0
   -2.9890    0.0462   -0.1905 C   0  0  0  0  0  0
   -2.3249   -1.1759   -0.1395 C   0  0  0  0  0  0
   -0.9368   -1.2122   -0.0154 C   0  0  0  0  0  0
   -0.1789   -0.0319    0.0615 C   0  0  0  0  0  0
   -0.8729    1.1905    0.0031 C   0  0  0  0  0  0
    1.3153   -0.0795    0.1943 C   0  0  0  0  0  0
    1.9997   -1.2135    0.6681 C   0  0  0  0  0  0
    3.3957   -1.1443    0.7576 C   0  0  0  0  0  0
    4.0929   -0.0298    0.4092 N   0  0  0  0  0  0
    3.3506    1.0171   -0.0276 C   0  0  0  0  0  0
    1.9997    1.0515   -0.1517 N   0  0  0  0  0  0
    4.2171   -2.3255    1.2555 C   0  0  0  0  0  0
    4.8986   -2.0636    2.6123 C   0  0  0  0  0  0
    5.7128   -3.2649    3.1116 C   0  0  0  0  0  0
    4.0727    2.2222   -0.3962 C   0  0  0  0  0  0
    4.6484    3.1825   -0.6896 N   0  0  0  0  0  0
   -2.9863    2.5755   -0.1837 C   0  0  0  0  0  0
   -3.1787    3.0768   -1.6262 C   0  0  0  0  0  0
   -3.9067    4.4258   -1.6974 C   0  0  0  0  0  0
   -4.0648    0.0659   -0.2893 H   0  0  0  0  0  0
   -2.8856   -2.0972   -0.1994 H   0  0  0  0  0  0
   -0.4590   -2.1797    0.0073 H   0  0  0  0  0  0
   -0.3306    2.1236    0.0576 H   0  0  0  0  0  0
    1.4802   -2.1113    0.9673 H   0  0  0  0  0  0
    3.5767   -3.2057    1.3331 H   0  0  0  0  0  0
    4.9659   -2.5686    0.4997 H   0  0  0  0  0  0
    5.5575   -1.1973    2.5362 H   0  0  0  0  0  0
    4.1437   -1.8095    3.3580 H   0  0  0  0  0  0
    6.1818   -3.0448    4.0710 H   0  0  0  0  0  0
    6.5047   -3.5258    2.4087 H   0  0  0  0  0  0
    5.0813   -4.1437    3.2464 H   0  0  0  0  0  0
   -3.9523    2.4828    0.3156 H   0  0  0  0  0  0
   -2.4294    3.3106    0.4000 H   0  0  0  0  0  0
   -2.2077    3.1693   -2.1150 H   0  0  0  0  0  0
   -3.7413    2.3384   -2.1995 H   0  0  0  0  0  0
   -4.0281    4.7482   -2.7319 H   0  0  0  0  0  0
   -3.3515    5.2037   -1.1721 H   0  0  0  0  0  0
   -4.9000    4.3632   -1.2518 H   0  0  0  0  0  0
  1  6  2  0  0  0
  1  2  1  0  0  0
  1 18  1  0  0  0
  2  3  2  0  0  0
  2 21  1  0  0  0
  3  4  1  0  0  0
  3 22  1  0  0  0
  4  5  2  0  0  0
  4 23  1  0  0  0
  5  6  1  0  0  0
  5  7  1  0  0  0
  6 24  1  0  0  0
  7 12  1  0  0  0
  7  8  2  0  0  0
  8  9  1  0  0  0
  8 25  1  0  0  0
  9 10  2  0  0  0
  9 13  1  0  0  0
 10 11  1  0  0  0
 11 12  2  0  0  0
 11 16  1  0  0  0
 13 14  1  0  0  0
 13 26  1  0  0  0
 13 27  1  0  0  0
 14 15  1  0  0  0
 14 28  1  0  0  0
 14 29  1  0  0  0
 15 30  1  0  0  0
 15 31  1  0  0  0
 15 32  1  0  0  0
 16 17  3  0  0  0
 18 19  1  0  0  0
 18 33  1  0  0  0
 18 34  1  0  0  0
 19 20  1  0  0  0
 19 35  1  0  0  0
 19 36  1  0  0  0
 20 37  1  0  0  0
 20 38  1  0  0  0
 20 39  1  0  0  0
M  END
> <chembl_id>
CHEMBL1209309

> <chembl_pref_name>
None

> <s_m_source_file>
sdf/inactives_sanitized.sdf

> <i_m_source_file_index>
169

> <i_lp_mmshare_version>
49012

> <i_m_ct_stereo_status>
1

> <i_f3d_flags>
0

> <s_epik_input>
W0NIM11bQ0gyXVtDSDJdYzFbY0hdW2NIXVtjSF1jKFtjSF0xKS1jMltjSF1jKG5jKG4yKUMjTilbQ0gyXVtDSDJdW0NIM10=

> <s_epik_cmdline>
J2VwaWtfcHl0aG9uJywgJy1waHQnLCAnMC41JywgJy1waCcsICc3LjUnLCAnLW50JywgJy1tYScsICcyMDAnLCAnLWltYWUnLCAnPGluZmlsZS5tYWU+JywgJy1vbWFlJywgJzxvdXRmaWxlLm1hZT4n

> <r_lp_tautomer_probability>
1

> <r_epik_Ionization_Penalty>
  0.0000

> <r_epik_Ionization_Penalty_Charging>
  0.0000

> <r_epik_Ionization_Penalty_Neutral>
  0.0000

> <r_epik_State_Penalty>
 -0.0000

> <r_epik_Charging_Adjusted_Penalty>
0

> <i_epik_Tot_Q>
0

> <i_epik_Tot_abs_Q>
0

> <s_lp_Force_Field>
OPLS3e

> <r_lp_Energy>
28.340491

> <b_lp_Chiralities_Consistent>
1

> <s_lp_Variant>
sdf/inactives_sanitized.sdf:169-1

$$$$
sdf/inactives_sanitized.sdf:170
                    3D
 Schrodinger Suite 2020-1.
 42 43  0  0  1  0            999 V2000
   -2.2611    1.1781    0.1377 C   0  0  0  0  0  0
   -2.9762    0.0024    0.3700 C   0  0  0  0  0  0
   -2.3013   -1.2064    0.5143 C   0  0  0  0  0  0
   -0.9103   -1.2446    0.4270 C   0  0  0  0  0  0
   -0.1616   -0.0790    0.1959 C   0  0  0  0  0  0
   -0.8661    1.1297    0.0534 C   0  0  0  0  0  0
    1.3340   -0.1291    0.0983 C   0  0  0  0  0  0
    2.0966   -1.1619    0.6721 C   0  0  0  0  0  0
    3.4881   -1.1061    0.5235 C   0  0  0  0  0  0
    4.1088   -0.0956   -0.1428 N   0  0  0  0  0  0
    3.2947    0.8599   -0.6555 C   0  0  0  0  0  0
    1.9411    0.8977   -0.5678 N   0  0  0  0  0  0
    4.3905   -2.1834    1.1094 C   0  0  0  0  0  0
    5.0934   -3.0367    0.0362 C   0  0  0  0  0  0
    5.9741   -4.1421    0.6345 C   0  0  0  0  0  0
    3.9349    1.9520   -1.3680 C   0  0  0  0  0  0
    4.4451    2.8219   -1.9359 N   0  0  0  0  0  0
   -2.9985    2.5021   -0.0236 C   0  0  0  0  0  0
   -3.6014    2.7216   -1.4320 C   0  0  0  0  0  0
   -2.5298    2.7567   -2.5400 C   0  0  0  0  0  0
   -4.4639    3.9960   -1.4661 C   0  0  0  0  0  0
   -4.0545    0.0235    0.4354 H   0  0  0  0  0  0
   -2.8565   -2.1161    0.6898 H   0  0  0  0  0  0
   -0.4237   -2.2027    0.5292 H   0  0  0  0  0  0
   -0.3288    2.0502   -0.1247 H   0  0  0  0  0  0
    1.6388   -1.9724    1.2190 H   0  0  0  0  0  0
    5.1309   -1.7039    1.7520 H   0  0  0  0  0  0
    3.8040   -2.8304    1.7640 H   0  0  0  0  0  0
    4.3467   -3.4915   -0.6166 H   0  0  0  0  0  0
    5.7094   -2.3993   -0.6000 H   0  0  0  0  0  0
    6.4595   -4.7209   -0.1517 H   0  0  0  0  0  0
    5.3862   -4.8339    1.2386 H   0  0  0  0  0  0
    6.7570   -3.7251    1.2688 H   0  0  0  0  0  0
   -3.7892    2.5357    0.7280 H   0  0  0  0  0  0
   -2.3302    3.3260    0.2337 H   0  0  0  0  0  0
   -4.2666    1.8830   -1.6455 H   0  0  0  0  0  0
   -1.8099    3.5586   -2.3726 H   0  0  0  0  0  0
   -2.9795    2.9148   -3.5209 H   0  0  0  0  0  0
   -1.9752    1.8195   -2.5916 H   0  0  0  0  0  0
   -3.8689    4.8866   -1.2600 H   0  0  0  0  0  0
   -5.2626    3.9526   -0.7246 H   0  0  0  0  0  0
   -4.9352    4.1300   -2.4405 H   0  0  0  0  0  0
  1  6  2  0  0  0
  1  2  1  0  0  0
  1 18  1  0  0  0
  2  3  2  0  0  0
  2 22  1  0  0  0
  3  4  1  0  0  0
  3 23  1  0  0  0
  4  5  2  0  0  0
  4 24  1  0  0  0
  5  6  1  0  0  0
  5  7  1  0  0  0
  6 25  1  0  0  0
  7 12  1  0  0  0
  7  8  2  0  0  0
  8  9  1  0  0  0
  8 26  1  0  0  0
  9 13  1  0  0  0
  9 10  2  0  0  0
 10 11  1  0  0  0
 11 12  2  0  0  0
 11 16  1  0  0  0
 13 14  1  0  0  0
 13 27  1  0  0  0
 13 28  1  0  0  0
 14 15  1  0  0  0
 14 29  1  0  0  0
 14 30  1  0  0  0
 15 31  1  0  0  0
 15 32  1  0  0  0
 15 33  1  0  0  0
 16 17  3  0  0  0
 18 19  1  0  0  0
 18 34  1  0  0  0
 18 35  1  0  0  0
 19 20  1  0  0  0
 19 21  1  0  0  0
 19 36  1  0  0  0
 20 37  1  0  0  0
 20 38  1  0  0  0
 20 39  1  0  0  0
 21 40  1  0  0  0
 21 41  1  0  0  0
 21 42  1  0  0  0
M  END
> <chembl_id>
CHEMBL1209311

> <chembl_pref_name>
None

> <s_m_source_file>
sdf/inactives_sanitized.sdf

> <i_m_source_file_index>
170

> <i_lp_mmshare_version>
49012

> <i_m_ct_stereo_status>
1

> <i_f3d_flags>
0

> <s_epik_input>
W0NIM11bQ0hdKFtDSDNdKVtDSDJdYzFbY0hdW2NIXVtjSF1jKFtjSF0xKS1jMltjSF1jKG5jKG4yKUMjTilbQ0gyXVtDSDJdW0NIM10=

> <s_epik_cmdline>
J2VwaWtfcHl0aG9uJywgJy1waHQnLCAnMC41JywgJy1waCcsICc3LjUnLCAnLW50JywgJy1tYScsICcyMDAnLCAnLWltYWUnLCAnPGluZmlsZS5tYWU+JywgJy1vbWFlJywgJzxvdXRmaWxlLm1hZT4n

> <r_lp_tautomer_probability>
1

> <r_epik_Ionization_Penalty>
  0.0000

> <r_epik_Ionization_Penalty_Charging>
  0.0000

> <r_epik_Ionization_Penalty_Neutral>
  0.0000

> <r_epik_State_Penalty>
 -0.0000

> <r_epik_Charging_Adjusted_Penalty>
0

> <i_epik_Tot_Q>
0

> <i_epik_Tot_abs_Q>
0

> <s_lp_Force_Field>
OPLS3e

> <r_lp_Energy>
28.540468

> <b_lp_Chiralities_Consistent>
1

> <s_lp_Variant>
sdf/inactives_sanitized.sdf:170-1

$$$$
sdf/inactives_sanitized.sdf:171
                    3D
 Schrodinger Suite 2020-1.
 43 45  0  0  1  0            999 V2000
    4.0124   -0.3129   -1.1330 N   0  0  0  0  0  0
    4.1188    1.0338   -1.0244 C   0  0  0  0  0  0
    4.3358    1.5586   -2.4426 C   0  0  0  0  0  0
    4.6319    0.3420   -3.2961 C   0  0  0  0  0  0
    4.0831   -0.8236   -2.4983 C   0  0  0  0  0  0
    4.0291    1.7312   -0.0143 O   0  0  0  0  0  0
   -0.6497    1.0027   -0.0126 C   0  0  0  0  0  0
    0.0042   -0.2364    0.0833 C   0  0  0  0  0  0
   -0.7668   -1.4065    0.1445 C   0  0  0  0  0  0
   -2.1574   -1.3461    0.1125 C   0  0  0  0  0  0
   -2.8314   -0.1217    0.0181 C   0  0  0  0  0  0
   -2.0505    1.0438   -0.0425 C   0  0  0  0  0  0
    0.1618    2.3013   -0.0887 C   0  0  0  0  0  0
   -0.6071    3.3897   -0.1615 F   0  0  0  0  0  0
    0.9336    2.4171    0.9927 F   0  0  0  0  0  0
    0.9417    2.2783   -1.1703 F   0  0  0  0  0  0
   -4.3306   -0.0641   -0.0101 C   0  0  0  0  0  0
   -5.1222   -1.1531   -0.4119 C   0  0  0  0  0  0
   -6.5129   -1.0247   -0.4178 C   0  0  0  0  0  0
   -7.0960    0.1816   -0.0302 C   0  0  0  0  0  0
   -6.2547    1.2279    0.3509 C   0  0  0  0  0  0
   -4.9019    1.1181    0.3623 N   0  0  0  0  0  0
   -6.7875    2.5163    0.7629 C   0  0  0  0  0  0
   -7.2123    3.5417    1.0906 N   0  0  0  0  0  0
    1.3866   -0.2334    0.1261 O   0  0  0  0  0  0
    2.1052   -1.4611    0.0350 C   0  0  0  0  0  0
    3.6168   -1.1740   -0.0134 C   0  0  0  0  0  0
    3.4093    2.0366   -2.7641 H   0  0  0  0  0  0
    5.1302    2.3042   -2.4885 H   0  0  0  0  0  0
    4.2083    0.4005   -4.2994 H   0  0  0  0  0  0
    5.7123    0.2323   -3.4062 H   0  0  0  0  0  0
    3.0861   -1.1014   -2.8431 H   0  0  0  0  0  0
    4.7262   -1.7018   -2.5653 H   0  0  0  0  0  0
   -0.3039   -2.3779    0.2262 H   0  0  0  0  0  0
   -2.7046   -2.2742    0.1787 H   0  0  0  0  0  0
   -2.5432    2.0020   -0.1217 H   0  0  0  0  0  0
   -4.6812   -2.0867   -0.7272 H   0  0  0  0  0  0
   -7.1339   -1.8536   -0.7242 H   0  0  0  0  0  0
   -8.1714    0.2931   -0.0321 H   0  0  0  0  0  0
    1.8865   -2.0970    0.8942 H   0  0  0  0  0  0
    1.8091   -2.0055   -0.8635 H   0  0  0  0  0  0
    3.8863   -0.6436    0.9019 H   0  0  0  0  0  0
    4.1909   -2.1008   -0.0266 H   0  0  0  0  0  0
  1  2  1  0  0  0
  1  5  1  0  0  0
  1 27  1  0  0  0
  2  3  1  0  0  0
  2  6  2  0  0  0
  3  4  1  0  0  0
  3 28  1  0  0  0
  3 29  1  0  0  0
  4  5  1  0  0  0
  4 30  1  0  0  0
  4 31  1  0  0  0
  5 32  1  0  0  0
  5 33  1  0  0  0
  7  8  2  0  0  0
  7 12  1  0  0  0
  7 13  1  0  0  0
  8  9  1  0  0  0
  8 25  1  0  0  0
  9 10  2  0  0  0
  9 34  1  0  0  0
 10 11  1  0  0  0
 10 35  1  0  0  0
 11 17  1  0  0  0
 11 12  2  0  0  0
 12 36  1  0  0  0
 13 14  1  0  0  0
 13 15  1  0  0  0
 13 16  1  0  0  0
 17 18  2  0  0  0
 17 22  1  0  0  0
 18 19  1  0  0  0
 18 37  1  0  0  0
 19 20  2  0  0  0
 19 38  1  0  0  0
 20 21  1  0  0  0
 20 39  1  0  0  0
 21 22  2  0  0  0
 21 23  1  0  0  0
 23 24  3  0  0  0
 25 26  1  0  0  0
 26 27  1  0  0  0
 26 40  1  0  0  0
 26 41  1  0  0  0
 27 42  1  0  0  0
 27 43  1  0  0  0
M  END
> <chembl_id>
CHEMBL1209771

> <chembl_pref_name>
None

> <s_m_source_file>
sdf/inactives_sanitized.sdf

> <i_m_source_file_index>
171

> <i_lp_mmshare_version>
49012

> <i_m_ct_stereo_status>
1

> <i_f3d_flags>
0

> <s_epik_input>
W0NIMl0xW0NIMl1bQ0gyXUMoPU8pTjFbQ0gyXVtDSDJdT2MoYzJDKEYpKEYpRilbY0hdW2NIXWMoW2NIXTIpLWMzW2NIXVtjSF1bY0hdYyhuMylDI04=

> <s_epik_cmdline>
J2VwaWtfcHl0aG9uJywgJy1waHQnLCAnMC41JywgJy1waCcsICc3LjUnLCAnLW50JywgJy1tYScsICcyMDAnLCAnLWltYWUnLCAnPGluZmlsZS5tYWU+JywgJy1vbWFlJywgJzxvdXRmaWxlLm1hZT4n

> <r_lp_tautomer_probability>
1

> <r_epik_Ionization_Penalty>
  0.0000

> <r_epik_Ionization_Penalty_Charging>
  0.0000

> <r_epik_Ionization_Penalty_Neutral>
  0.0000

> <r_epik_State_Penalty>
 -0.0000

> <r_epik_Charging_Adjusted_Penalty>
0

> <i_epik_Tot_Q>
0

> <i_epik_Tot_abs_Q>
0

> <s_lp_Force_Field>
OPLS3e

> <r_lp_Energy>
19.436421

> <b_lp_Chiralities_Consistent>
1

> <s_lp_Variant>
sdf/inactives_sanitized.sdf:171-1

$$$$
sdf/inactives_sanitized.sdf:172
                    3D
 Schrodinger Suite 2020-1.
 65 67  0  0  1  0            999 V2000
   -3.3103    1.5396    0.7540 N   0  0  2  0  0  0
   -1.1598    0.7153   -0.2235 C   0  0  0  0  0  0
   -0.2424   -0.1533    0.2415 N   0  0  0  0  0  0
   -2.6439    0.3849    0.0904 C   0  0  2  0  0  0
   -2.7447    1.8176    2.0943 C   0  0  0  0  0  0
   -3.1658    3.1652    2.7200 C   0  0  0  0  0  0
    1.5880   -0.7273   -1.2743 C   0  0  0  0  0  0
    1.2077   -0.0614    0.0424 C   0  0  2  0  0  0
    2.0855   -0.0824   -2.3476 C   0  0  0  0  0  0
   -0.8630    1.7232   -0.8692 O   0  0  0  0  0  0
   -3.7707    3.1364    3.7930 O   0  0  0  0  0  0
   -2.9018    4.4334    1.9668 C   0  0  0  0  0  0
    1.9949   -0.6177    1.2689 C   0  0  2  0  0  0
    2.4784   -0.6851   -3.6394 C   0  0  0  0  0  0
   -4.7685    1.3269    0.8720 C   0  0  0  0  0  0
   -3.3079   -0.0367   -1.2532 C   0  0  0  0  0  0
   -1.9040    4.5036    0.9851 C   0  0  0  0  0  0
   -3.6338    5.5872    2.2813 C   0  0  0  0  0  0
    1.5564    0.0400    2.6092 C   0  0  0  0  0  0
    3.5254   -0.5049    1.0654 C   0  0  0  0  0  0
    2.8291    0.1675   -4.6919 C   0  0  0  0  0  0
    2.5075   -2.0720   -3.8435 C   0  0  0  0  0  0
   -5.4497    0.9885   -0.4664 C   0  0  0  0  0  0
    2.1511   -0.6039    3.8731 C   0  0  0  0  0  0
   -4.8197   -0.2426   -1.1214 C   0  0  0  0  0  0
   -3.3920    6.7806    1.6060 C   0  0  0  0  0  0
   -1.6624    5.6969    0.3101 C   0  0  0  0  0  0
    2.8824   -2.5938   -5.0789 C   0  0  0  0  0  0
    3.2041   -0.3533   -5.9276 C   0  0  0  0  0  0
    3.2292   -1.7323   -6.1159 C   0  0  0  0  0  0
   -2.4096    6.8295    0.6209 C   0  0  0  0  0  0
   -0.5701   -0.9878    0.7055 H   0  0  0  0  0  0
   -2.6476   -0.4733    0.7681 H   0  0  0  0  0  0
   -3.0164    1.0069    2.7727 H   0  0  0  0  0  0
   -1.6556    1.8084    2.0670 H   0  0  0  0  0  0
    1.4272   -1.7941   -1.3061 H   0  0  0  0  0  0
    1.4762    0.9967   -0.0236 H   0  0  0  0  0  0
    2.2237    0.9871   -2.2675 H   0  0  0  0  0  0
    1.7618   -1.6817    1.3435 H   0  0  0  0  0  0
   -4.9545    0.5254    1.5895 H   0  0  0  0  0  0
   -5.2412    2.2179    1.2870 H   0  0  0  0  0  0
   -3.1321    0.7196   -2.0220 H   0  0  0  0  0  0
   -2.8512   -0.9532   -1.6316 H   0  0  0  0  0  0
   -1.2992    3.6451    0.7397 H   0  0  0  0  0  0
   -4.3998    5.5694    3.0440 H   0  0  0  0  0  0
    1.8066    1.1019    2.5955 H   0  0  0  0  0  0
    0.4718   -0.0024    2.7112 H   0  0  0  0  0  0
    3.8403    0.5371    0.9962 H   0  0  0  0  0  0
    3.8527   -1.0081    0.1554 H   0  0  0  0  0  0
    4.0799   -0.9652    1.8826 H   0  0  0  0  0  0
    2.8122    1.2397   -4.5575 H   0  0  0  0  0  0
    2.2466   -2.7601   -3.0541 H   0  0  0  0  0  0
   -6.5098    0.8014   -0.2921 H   0  0  0  0  0  0
   -5.4140    1.8531   -1.1310 H   0  0  0  0  0  0
    1.7188   -0.1607    4.7705 H   0  0  0  0  0  0
    3.2298   -0.4620    3.9340 H   0  0  0  0  0  0
    1.9481   -1.6750    3.9051 H   0  0  0  0  0  0
   -5.0205   -1.1280   -0.5162 H   0  0  0  0  0  0
   -5.2660   -0.4247   -2.0996 H   0  0  0  0  0  0
   -3.9634    7.6650    1.8465 H   0  0  0  0  0  0
   -0.8950    5.7440   -0.4485 H   0  0  0  0  0  0
    2.9047   -3.6628   -5.2315 H   0  0  0  0  0  0
    3.4744    0.3097   -6.7361 H   0  0  0  0  0  0
    3.5202   -2.1372   -7.0740 H   0  0  0  0  0  0
   -2.2218    7.7553    0.0974 H   0  0  0  0  0  0
  1  4  1  0  0  0
  1  5  1  0  0  0
  1 15  1  0  0  0
  2  4  1  0  0  0
  2  3  1  0  0  0
  2 10  2  0  0  0
  3  8  1  0  0  0
  3 32  1  0  0  0
  4 16  1  0  0  0
  4 33  1  0  0  0
  5  6  1  0  0  0
  5 34  1  0  0  0
  5 35  1  0  0  0
  6 11  2  0  0  0
  6 12  1  0  0  0
  7  8  1  0  0  0
  7  9  2  0  0  0
  7 36  1  0  0  0
  8 13  1  0  0  0
  8 37  1  0  0  0
  9 14  1  0  0  0
  9 38  1  0  0  0
 12 17  2  0  0  0
 12 18  1  0  0  0
 13 19  1  0  0  0
 13 20  1  0  0  0
 13 39  1  0  0  0
 14 21  2  0  0  0
 14 22  1  0  0  0
 15 23  1  0  0  0
 15 40  1  0  0  0
 15 41  1  0  0  0
 16 25  1  0  0  0
 16 42  1  0  0  0
 16 43  1  0  0  0
 17 27  1  0  0  0
 17 44  1  0  0  0
 18 26  2  0  0  0
 18 45  1  0  0  0
 19 24  1  0  0  0
 19 46  1  0  0  0
 19 47  1  0  0  0
 20 48  1  0  0  0
 20 49  1  0  0  0
 20 50  1  0  0  0
 21 29  1  0  0  0
 21 51  1  0  0  0
 22 28  2  0  0  0
 22 52  1  0  0  0
 23 25  1  0  0  0
 23 53  1  0  0  0
 23 54  1  0  0  0
 24 55  1  0  0  0
 24 56  1  0  0  0
 24 57  1  0  0  0
 25 58  1  0  0  0
 25 59  1  0  0  0
 26 31  1  0  0  0
 26 60  1  0  0  0
 27 31  2  0  0  0
 27 61  1  0  0  0
 28 30  1  0  0  0
 28 62  1  0  0  0
 29 30  2  0  0  0
 29 63  1  0  0  0
 30 64  1  0  0  0
 31 65  1  0  0  0
M  END
> <chembl_id>
CHEMBL98442

> <chembl_pref_name>
None

> <i_m_ct_stereo_status>
1

> <s_m_source_file>
sdf/inactives_sanitized.sdf

> <i_m_source_file_index>
172

> <i_lp_mmshare_version>
49012

> <i_f3d_flags>
0

> <s_epik_input>
W2NIXTFbY0hdW2NIXVtjSF1bY0hdYzFDKD1PKVtDSDJdTjJbQ0BASF0oW0NIMl1bQ0gyXVtDSDJdW0NIMl0yKUMoPU8pW05IXVtDQEBIXShbQ0BASF0oW0NIM10pW0NIMl1bQ0gzXSkvW0NIXT1bQ0hdL2MzW2NIXVtjSF1bY0hdW2NIXVtjSF0z

> <s_epik_cmdline>
J2VwaWtfcHl0aG9uJywgJy1waHQnLCAnMC41JywgJy1waCcsICc3LjUnLCAnLW50JywgJy1tYScsICcyMDAnLCAnLWltYWUnLCAnPGluZmlsZS5tYWU+JywgJy1vbWFlJywgJzxvdXRmaWxlLm1hZT4n

> <r_lp_tautomer_probability>
0.99990000499975

> <r_epik_Ionization_Penalty>
  0.0202

> <r_epik_Ionization_Penalty_Charging>
  0.0000

> <r_epik_Ionization_Penalty_Neutral>
  0.0202

> <r_epik_State_Penalty>
  0.0162

> <r_epik_Charging_Adjusted_Penalty>
0.0161663335032028

> <i_epik_Tot_Q>
0

> <i_epik_Tot_abs_Q>
0

> <s_lp_Force_Field>
OPLS3e

> <r_lp_Energy>
36.170633

> <b_lp_Chiralities_Consistent>
1

> <s_lp_Variant>
sdf/inactives_sanitized.sdf:172-1

$$$$
sdf/inactives_sanitized.sdf:173
                    3D
 Schrodinger Suite 2020-1.
 42 43  0  0  1  0            999 V2000
   -4.9452    0.3782   -1.7937 C   0  0  0  0  0  0
   -4.4133    0.4001   -0.5021 C   0  0  0  0  0  0
   -3.0788    0.7621   -0.3045 C   0  0  0  0  0  0
   -2.2800    1.1018   -1.3988 C   0  0  0  0  0  0
   -2.8122    1.0823   -2.6890 C   0  0  0  0  0  0
   -4.1449    0.7191   -2.8854 C   0  0  0  0  0  0
   -0.5944    1.5557   -1.1518 S   0  0  0  0  0  0
    0.2383    0.0019   -0.7139 C   0  0  0  0  0  0
    1.7498    0.1074   -0.3761 C   0  0  1  0  0  0
    2.3854   -1.2397    0.1069 C   0  0  1  0  0  0
    3.9036   -1.1067    0.4191 C   0  0  0  0  0  0
    4.6649   -0.5426   -0.7966 C   0  0  0  0  0  0
    4.0621    0.7877   -1.2852 C   0  0  0  0  0  0
    2.5594    0.6449   -1.5858 C   0  0  0  0  0  0
    1.6508   -1.8216    1.3395 C   0  0  0  0  0  0
    0.9318   -2.8129    1.2092 O   0  0  0  0  0  0
    1.8182   -1.1990    2.5209 N   0  0  0  0  0  0
    1.2129   -1.6289    3.7786 C   0  0  0  0  0  0
    1.7109   -2.9378    4.2375 C   0  0  0  0  0  0
    2.1022   -3.9652    4.5981 N   0  0  0  0  0  0
   -5.2131    0.0616    0.5884 N   0  0  0  0  0  0
   -5.9761    0.0986   -1.9575 H   0  0  0  0  0  0
   -2.6613    0.7798    0.6924 H   0  0  0  0  0  0
   -2.1972    1.3442   -3.5377 H   0  0  0  0  0  0
   -4.5575    0.7012   -3.8833 H   0  0  0  0  0  0
   -0.3134   -0.4027    0.1342 H   0  0  0  0  0  0
    0.0898   -0.7031   -1.5329 H   0  0  0  0  0  0
    1.8584    0.8270    0.4384 H   0  0  0  0  0  0
    2.2619   -1.9956   -0.6721 H   0  0  0  0  0  0
    4.0825   -0.3940    1.2267 H   0  0  0  0  0  0
    4.3504   -2.0771    0.6437 H   0  0  0  0  0  0
    5.7164   -0.4004   -0.5434 H   0  0  0  0  0  0
    4.6456   -1.2704   -1.6096 H   0  0  0  0  0  0
    4.2127    1.5604   -0.5297 H   0  0  0  0  0  0
    4.5881    1.1272   -2.1783 H   0  0  0  0  0  0
    2.4183   -0.0192   -2.4404 H   0  0  0  0  0  0
    2.1624    1.6057   -1.9142 H   0  0  0  0  0  0
    2.4592   -0.4210    2.5720 H   0  0  0  0  0  0
    1.4388   -0.8934    4.5506 H   0  0  0  0  0  0
    0.1265   -1.6759    3.6882 H   0  0  0  0  0  0
   -4.8297    0.1150    1.5211 H   0  0  0  0  0  0
   -6.1858   -0.1647    0.4383 H   0  0  0  0  0  0
  1  6  2  0  0  0
  1  2  1  0  0  0
  1 22  1  0  0  0
  2  3  2  0  0  0
  2 21  1  0  0  0
  3  4  1  0  0  0
  3 23  1  0  0  0
  4  7  1  0  0  0
  4  5  2  0  0  0
  5  6  1  0  0  0
  5 24  1  0  0  0
  6 25  1  0  0  0
  7  8  1  0  0  0
  8  9  1  0  0  0
  8 26  1  0  0  0
  8 27  1  0  0  0
  9 14  1  0  0  0
  9 10  1  0  0  0
  9 28  1  0  0  0
 10 11  1  0  0  0
 10 15  1  0  0  0
 10 29  1  0  0  0
 11 12  1  0  0  0
 11 30  1  0  0  0
 11 31  1  0  0  0
 12 13  1  0  0  0
 12 32  1  0  0  0
 12 33  1  0  0  0
 13 14  1  0  0  0
 13 34  1  0  0  0
 13 35  1  0  0  0
 14 36  1  0  0  0
 14 37  1  0  0  0
 15 16  2  0  0  0
 15 17  1  0  0  0
 17 18  1  0  0  0
 17 38  1  0  0  0
 18 19  1  0  0  0
 18 39  1  0  0  0
 18 40  1  0  0  0
 19 20  3  0  0  0
 21 41  1  0  0  0
 21 42  1  0  0  0
M  END
> <chembl_id>
CHEMBL201166

> <chembl_pref_name>
None

> <i_m_ct_stereo_status>
1

> <s_m_source_file>
sdf/inactives_sanitized.sdf

> <i_m_source_file_index>
173

> <i_lp_mmshare_version>
49012

> <i_f3d_flags>
0

> <s_epik_input>
W05IMl1jMVtjSF1bY0hdW2NIXWMoW2NIXTEpU1tDSDJdW0NASF0yW0NAQEhdKFtDSDJdW0NIMl1bQ0gyXVtDSDJdMilDKD1PKVtOSF1bQ0gyXUMjTg==

> <s_epik_cmdline>
J2VwaWtfcHl0aG9uJywgJy1waHQnLCAnMC41JywgJy1waCcsICc3LjUnLCAnLW50JywgJy1tYScsICcyMDAnLCAnLWltYWUnLCAnPGluZmlsZS5tYWU+JywgJy1vbWFlJywgJzxvdXRmaWxlLm1hZT4n

> <r_lp_tautomer_probability>
1

> <r_epik_Ionization_Penalty>
  0.0002

> <r_epik_Ionization_Penalty_Charging>
  0.0000

> <r_epik_Ionization_Penalty_Neutral>
  0.0002

> <r_epik_State_Penalty>
 -0.0000

> <r_epik_Charging_Adjusted_Penalty>
0

> <i_epik_Tot_Q>
0

> <i_epik_Tot_abs_Q>
0

> <s_lp_Force_Field>
OPLS3e

> <r_lp_Energy>
20.233959

> <b_lp_Chiralities_Consistent>
1

> <s_lp_Variant>
sdf/inactives_sanitized.sdf:173-1

$$$$
sdf/inactives_sanitized.sdf:174
                    3D
 Schrodinger Suite 2020-1.
 44 45  0  0  1  0            999 V2000
   -0.0253    4.5884   -0.5828 C   0  0  0  0  0  0
   -0.0319    4.2676    0.7777 C   0  0  0  0  0  0
    0.0493    2.9151    1.1539 C   0  0  0  0  0  0
    0.1361    1.9167    0.1821 C   0  0  0  0  0  0
    0.1425    2.2523   -1.1714 C   0  0  0  0  0  0
    0.0613    3.5900   -1.5532 C   0  0  0  0  0  0
    0.2488    0.2260    0.6670 S   0  0  0  0  0  0
    2.0334   -0.1022    0.7198 C   0  0  0  0  0  0
    2.4536   -1.5645    1.0286 C   0  0  1  0  0  0
    3.9987   -1.8011    0.9338 C   0  0  1  0  0  0
    4.3788   -3.2758    1.2423 C   0  0  0  0  0  0
    3.8431   -3.7045    2.6233 C   0  0  0  0  0  0
    2.3266   -3.4683    2.7518 C   0  0  0  0  0  0
    1.9593   -2.0089    2.4300 C   0  0  0  0  0  0
    4.5405   -1.4564   -0.4736 C   0  0  0  0  0  0
    4.0818   -2.0152   -1.4716 O   0  0  0  0  0  0
    5.5000   -0.5171   -0.5429 N   0  0  0  0  0  0
    6.0628   -0.0030   -1.7883 C   0  0  0  0  0  0
    5.0829    0.7669   -2.5750 C   0  0  0  0  0  0
    4.3129    1.3720   -3.1914 N   0  0  0  0  0  0
   -0.1174    5.3227    1.6655 O   0  0  0  0  0  0
   -0.1186    5.0537    3.0632 C   0  0  0  0  0  0
   -0.0868    5.6222   -0.8902 H   0  0  0  0  0  0
    0.0485    2.6263    2.1941 H   0  0  0  0  0  0
    0.2125    1.4821   -1.9259 H   0  0  0  0  0  0
    0.0668    3.8537   -2.6005 H   0  0  0  0  0  0
    2.4191    0.2072   -0.2516 H   0  0  0  0  0  0
    2.4795    0.5750    1.4494 H   0  0  0  0  0  0
    1.9744   -2.2113    0.2899 H   0  0  0  0  0  0
    4.5093   -1.1413    1.6393 H   0  0  0  0  0  0
    3.9199   -3.9600    0.5252 H   0  0  0  0  0  0
    5.4618   -3.4090    1.2764 H   0  0  0  0  0  0
    4.0681   -4.7574    2.7980 H   0  0  0  0  0  0
    4.3646   -3.1500    3.4052 H   0  0  0  0  0  0
    1.7916   -4.1376    2.0763 H   0  0  0  0  0  0
    1.9951   -3.7222    3.7594 H   0  0  0  0  0  0
    2.3749   -1.3460    3.1909 H   0  0  0  0  0  0
    0.8795   -1.8809    2.5117 H   0  0  0  0  0  0
    5.8016   -0.0655    0.3081 H   0  0  0  0  0  0
    6.9000    0.6547   -1.5549 H   0  0  0  0  0  0
    6.4540   -0.8144   -2.4043 H   0  0  0  0  0  0
   -0.1870    5.9937    3.6105 H   0  0  0  0  0  0
    0.8009    4.5563    3.3755 H   0  0  0  0  0  0
   -0.9738    4.4407    3.3523 H   0  0  0  0  0  0
  1  6  2  0  0  0
  1  2  1  0  0  0
  1 23  1  0  0  0
  2 21  1  0  0  0
  2  3  2  0  0  0
  3  4  1  0  0  0
  3 24  1  0  0  0
  4  7  1  0  0  0
  4  5  2  0  0  0
  5  6  1  0  0  0
  5 25  1  0  0  0
  6 26  1  0  0  0
  7  8  1  0  0  0
  8  9  1  0  0  0
  8 27  1  0  0  0
  8 28  1  0  0  0
  9 14  1  0  0  0
  9 10  1  0  0  0
  9 29  1  0  0  0
 10 11  1  0  0  0
 10 15  1  0  0  0
 10 30  1  0  0  0
 11 12  1  0  0  0
 11 31  1  0  0  0
 11 32  1  0  0  0
 12 13  1  0  0  0
 12 33  1  0  0  0
 12 34  1  0  0  0
 13 14  1  0  0  0
 13 35  1  0  0  0
 13 36  1  0  0  0
 14 37  1  0  0  0
 14 38  1  0  0  0
 15 16  2  0  0  0
 15 17  1  0  0  0
 17 18  1  0  0  0
 17 39  1  0  0  0
 18 19  1  0  0  0
 18 40  1  0  0  0
 18 41  1  0  0  0
 19 20  3  0  0  0
 21 22  1  0  0  0
 22 42  1  0  0  0
 22 43  1  0  0  0
 22 44  1  0  0  0
M  END
> <chembl_id>
CHEMBL201165

> <chembl_pref_name>
None

> <i_m_ct_stereo_status>
1

> <s_m_source_file>
sdf/inactives_sanitized.sdf

> <i_m_source_file_index>
174

> <i_lp_mmshare_version>
49012

> <i_f3d_flags>
0

> <s_epik_input>
W0NIM11PYzFbY0hdW2NIXVtjSF1jKFtjSF0xKVNbQ0gyXVtDQEhdMltDQEBIXShbQ0gyXVtDSDJdW0NIMl1bQ0gyXTIpQyg9TylbTkhdW0NIMl1DI04=

> <s_epik_cmdline>
J2VwaWtfcHl0aG9uJywgJy1waHQnLCAnMC41JywgJy1waCcsICc3LjUnLCAnLW50JywgJy1tYScsICcyMDAnLCAnLWltYWUnLCAnPGluZmlsZS5tYWU+JywgJy1vbWFlJywgJzxvdXRmaWxlLm1hZT4n

> <r_lp_tautomer_probability>
1

> <r_epik_Ionization_Penalty>
  0.0000

> <r_epik_Ionization_Penalty_Charging>
  0.0000

> <r_epik_Ionization_Penalty_Neutral>
  0.0000

> <r_epik_State_Penalty>
 -0.0000

> <r_epik_Charging_Adjusted_Penalty>
0

> <i_epik_Tot_Q>
0

> <i_epik_Tot_abs_Q>
0

> <s_lp_Force_Field>
OPLS3e

> <r_lp_Energy>
23.771129

> <b_lp_Chiralities_Consistent>
1

> <s_lp_Variant>
sdf/inactives_sanitized.sdf:174-1

$$$$
sdf/inactives_sanitized.sdf:175
                    3D
 Schrodinger Suite 2020-1.
 39 41  0  0  1  0            999 V2000
   -0.0178   -0.1726    0.0043 C   0  0  0  0  0  0
   -3.5987   -3.9881    1.9123 C   0  0  0  0  0  0
   -3.1883   -3.2816    0.8436 N   0  0  1  0  0  0
   -3.9132   -4.6292    2.8230 N   0  0  0  0  0  0
   -0.6018   -1.3387   -0.3346 N   0  0  0  0  0  0
    1.4959   -0.1500   -0.0047 C   0  0  0  0  0  0
    4.3198   -0.0621   -0.0060 C   0  0  0  0  0  0
   -2.0459   -1.5861   -0.3504 C   0  0  2  0  0  0
   -0.6633    0.8407    0.2823 O   0  0  0  0  0  0
   -2.5802   -1.9694    1.0452 C   0  0  0  0  0  0
    2.1727    1.0742   -0.0646 C   0  0  0  0  0  0
    2.2484   -1.3317    0.0601 C   0  0  0  0  0  0
    3.6398   -1.2848    0.0576 C   0  0  0  0  0  0
    3.5641    1.1154   -0.0664 C   0  0  0  0  0  0
   -2.3596   -2.7976   -1.2267 C   0  0  0  0  0  0
    5.8148   -0.0150   -0.0075 C   0  0  0  0  0  0
   -2.4769   -3.9501   -0.2349 C   0  0  0  0  0  0
    6.5008    1.0417    0.6099 C   0  0  0  0  0  0
    6.5635   -1.0271   -0.6268 C   0  0  0  0  0  0
    7.9552   -0.9855   -0.6301 C   0  0  0  0  0  0
    7.8926    1.0864    0.6095 C   0  0  0  0  0  0
    8.6146    0.0717   -0.0110 C   0  0  0  0  0  0
   -0.0110   -2.1493   -0.4476 H   0  0  0  0  0  0
   -2.5577   -0.7198   -0.7772 H   0  0  0  0  0  0
   -3.3230   -1.2525    1.3963 H   0  0  0  0  0  0
   -1.7885   -2.0271    1.7946 H   0  0  0  0  0  0
    1.6286    2.0070   -0.1156 H   0  0  0  0  0  0
    1.7702   -2.2988    0.1213 H   0  0  0  0  0  0
    4.1867   -2.2141    0.1196 H   0  0  0  0  0  0
    4.0507    2.0778   -0.1263 H   0  0  0  0  0  0
   -3.3290   -2.6586   -1.7106 H   0  0  0  0  0  0
   -1.6545   -2.9787   -2.0396 H   0  0  0  0  0  0
   -3.0558   -4.7886   -0.6237 H   0  0  0  0  0  0
   -1.5081   -4.2775    0.1470 H   0  0  0  0  0  0
    5.9593    1.8336    1.1062 H   0  0  0  0  0  0
    6.0709   -1.8509   -1.1219 H   0  0  0  0  0  0
    8.5205   -1.7690   -1.1128 H   0  0  0  0  0  0
    8.4093    1.9037    1.0905 H   0  0  0  0  0  0
    9.6942    0.1047   -0.0128 H   0  0  0  0  0  0
  1  5  1  0  0  0
  1  6  1  0  0  0
  1  9  2  0  0  0
  2  3  1  0  0  0
  2  4  3  0  0  0
  3 10  1  0  0  0
  3 17  1  0  0  0
  5  8  1  0  0  0
  5 23  1  0  0  0
  6 11  2  0  0  0
  6 12  1  0  0  0
  7 13  1  0  0  0
  7 16  1  0  0  0
  7 14  2  0  0  0
  8 10  1  0  0  0
  8 15  1  0  0  0
  8 24  1  0  0  0
 10 25  1  0  0  0
 10 26  1  0  0  0
 11 14  1  0  0  0
 11 27  1  0  0  0
 12 13  2  0  0  0
 12 28  1  0  0  0
 13 29  1  0  0  0
 14 30  1  0  0  0
 15 17  1  0  0  0
 15 31  1  0  0  0
 15 32  1  0  0  0
 16 18  2  0  0  0
 16 19  1  0  0  0
 17 33  1  0  0  0
 17 34  1  0  0  0
 18 21  1  0  0  0
 18 35  1  0  0  0
 19 20  2  0  0  0
 19 36  1  0  0  0
 20 22  1  0  0  0
 20 37  1  0  0  0
 21 22  2  0  0  0
 21 38  1  0  0  0
 22 39  1  0  0  0
M  END
> <chembl_id>
CHEMBL8816

> <chembl_pref_name>
None

> <s_m_source_file>
sdf/inactives_sanitized.sdf

> <i_m_source_file_index>
175

> <i_lp_mmshare_version>
49012

> <i_m_ct_stereo_status>
1

> <i_f3d_flags>
0

> <s_epik_input>
TiNDTjFbQ0gyXVtDQEhdKFtDSDJdW0NIMl0xKVtOSF1DKD1PKWMyW2NIXVtjSF1jKFtjSF1bY0hdMiktYzNbY0hdW2NIXVtjSF1bY0hdW2NIXTM=

> <s_epik_cmdline>
J2VwaWtfcHl0aG9uJywgJy1waHQnLCAnMC41JywgJy1waCcsICc3LjUnLCAnLW50JywgJy1tYScsICcyMDAnLCAnLWltYWUnLCAnPGluZmlsZS5tYWU+JywgJy1vbWFlJywgJzxvdXRmaWxlLm1hZT4n

> <r_lp_tautomer_probability>
1

> <r_epik_Ionization_Penalty>
  0.0000

> <r_epik_Ionization_Penalty_Charging>
  0.0000

> <r_epik_Ionization_Penalty_Neutral>
  0.0000

> <r_epik_State_Penalty>
 -0.0000

> <r_epik_Charging_Adjusted_Penalty>
0

> <i_epik_Tot_Q>
0

> <i_epik_Tot_abs_Q>
0

> <s_lp_Force_Field>
OPLS3e

> <r_lp_Energy>
36.117662

> <b_lp_Chiralities_Consistent>
1

> <s_lp_Variant>
sdf/inactives_sanitized.sdf:175-1

$$$$
sdf/inactives_sanitized.sdf:176
                    3D
 Schrodinger Suite 2020-1.
 36 37  0  0  1  0            999 V2000
   -2.8502    2.4747   -0.0124 C   0  0  0  0  0  0
   -2.0332    1.1683    0.0667 C   0  0  0  0  0  0
   -0.5194    1.4253   -0.1049 C   0  0  2  0  0  0
   -0.2405    2.1701   -1.4405 C   0  0  2  0  0  0
   -1.0165    3.5062   -1.4757 C   0  0  0  0  0  0
   -2.5239    3.2130   -1.3266 N   0  3  0  0  0  0
   -0.5673    1.3666   -2.5620 O   0  0  0  0  0  0
    0.1695    0.1765    0.0074 O   0  0  0  0  0  0
    1.5499    0.1121    0.1116 C   0  0  0  0  0  0
    2.3576    1.2321    0.3724 C   0  0  0  0  0  0
    3.7395    1.1067    0.4714 C   0  0  0  0  0  0
    4.3375   -0.1385    0.3164 C   0  0  0  0  0  0
    3.5592   -1.2714    0.0690 C   0  0  0  0  0  0
    2.1594   -1.1496   -0.0310 C   0  0  0  0  0  0
    1.3012   -2.3889   -0.2872 C   0  0  0  0  0  0
    4.2598   -2.6135   -0.1033 C   0  0  0  0  0  0
   -2.6117    3.1695    0.7942 H   0  0  0  0  0  0
   -3.9257    2.2954   -0.0252 H   0  0  0  0  0  0
   -2.3955    0.4934   -0.7102 H   0  0  0  0  0  0
   -2.2248    0.7048    1.0353 H   0  0  0  0  0  0
   -0.2129    2.0476    0.7380 H   0  0  0  0  0  0
    0.8213    2.3933   -1.5381 H   0  0  0  0  0  0
   -0.7916    4.1631   -0.6337 H   0  0  0  0  0  0
   -0.9363    4.0316   -2.4284 H   0  0  0  0  0  0
   -2.8274    2.6499   -2.1090 H   0  0  0  0  0  0
   -0.0609    0.5516   -2.5103 H   0  0  0  0  0  0
    1.9356    2.2155    0.5070 H   0  0  0  0  0  0
    4.3482    1.9766    0.6697 H   0  0  0  0  0  0
    5.4122   -0.2192    0.3937 H   0  0  0  0  0  0
    1.6350   -3.2211    0.3324 H   0  0  0  0  0  0
    1.3800   -2.6972   -1.3297 H   0  0  0  0  0  0
    0.2497   -2.2405   -0.0423 H   0  0  0  0  0  0
    4.0496   -3.2656    0.7448 H   0  0  0  0  0  0
    5.3406   -2.5042   -0.2014 H   0  0  0  0  0  0
    3.9066   -3.1150   -1.0048 H   0  0  0  0  0  0
   -3.0425    4.0794   -1.3642 H   0  0  0  0  0  0
  1  6  1  0  0  0
  1  2  1  0  0  0
  1 17  1  0  0  0
  1 18  1  0  0  0
  2  3  1  0  0  0
  2 19  1  0  0  0
  2 20  1  0  0  0
  3  8  1  0  0  0
  3  4  1  0  0  0
  3 21  1  0  0  0
  4  5  1  0  0  0
  4  7  1  0  0  0
  4 22  1  0  0  0
  5  6  1  0  0  0
  5 23  1  0  0  0
  5 24  1  0  0  0
  6 25  1  0  0  0
  6 36  1  0  0  0
  7 26  1  0  0  0
  8  9  1  0  0  0
  9 10  2  0  0  0
  9 14  1  0  0  0
 10 11  1  0  0  0
 10 27  1  0  0  0
 11 12  2  0  0  0
 11 28  1  0  0  0
 12 13  1  0  0  0
 12 29  1  0  0  0
 13 14  2  0  0  0
 13 16  1  0  0  0
 14 15  1  0  0  0
 15 30  1  0  0  0
 15 31  1  0  0  0
 15 32  1  0  0  0
 16 33  1  0  0  0
 16 34  1  0  0  0
 16 35  1  0  0  0
M  CHG  1   6   1
M  END
> <chembl_id>
CHEMBL441907

> <chembl_pref_name>
None

> <i_m_ct_stereo_status>
1

> <s_m_source_file>
sdf/inactives_sanitized.sdf

> <i_m_source_file_index>
176

> <i_lp_mmshare_version>
49012

> <i_f3d_flags>
0

> <s_epik_input>
W09IXVtDQEhdMVtDSDJdW05IXVtDSDJdW0NIMl1bQ0BIXTFPYzJbY0hdW2NIXVtjSF1jKFtDSDNdKWMyW0NIM10=

> <s_epik_cmdline>
J2VwaWtfcHl0aG9uJywgJy1waHQnLCAnMC41JywgJy1waCcsICc3LjUnLCAnLW50JywgJy1tYScsICcyMDAnLCAnLWltYWUnLCAnPGluZmlsZS5tYWU+JywgJy1vbWFlJywgJzxvdXRmaWxlLm1hZT4n

> <r_lp_tautomer_probability>
1

> <r_epik_Ionization_Penalty>
  0.0358

> <r_epik_Ionization_Penalty_Charging>
  0.0358

> <r_epik_Ionization_Penalty_Neutral>
  0.0000

> <r_epik_State_Penalty>
  0.0299

> <r_epik_Charging_Adjusted_Penalty>
0.0657488310252012

> <i_epik_Tot_Q>
1

> <i_epik_Tot_abs_Q>
1

> <s_lp_Force_Field>
OPLS3e

> <r_lp_Energy>
22.059251

> <b_lp_Chiralities_Consistent>
1

> <s_lp_Variant>
sdf/inactives_sanitized.sdf:176-1

$$$$
sdf/inactives_sanitized.sdf:177
                    3D
 Schrodinger Suite 2020-1.
 60 63  0  0  1  0            999 V2000
    3.5767    1.0545   -0.0229 C   0  0  0  0  0  0
    4.1949   -0.3322   -0.0115 C   0  0  0  0  0  0
    4.5599    0.6446   -1.0984 C   0  0  0  0  0  0
   -3.7836   -0.0386    1.4488 S   0  0  0  0  0  0
   -4.0777    0.7807    2.6302 O   0  0  0  0  0  0
   -4.3782    0.3032    0.1515 O   0  0  0  0  0  0
   -1.8959   -0.1573    1.2585 C   0  0  2  0  0  0
   -1.2827    1.2279    0.9650 C   0  0  0  0  0  0
   -0.2777    1.0267   -0.1958 C   0  0  2  0  0  0
   -0.8418   -0.1873   -0.9923 C   0  0  1  0  0  0
   -1.4774   -1.0843    0.0969 C   0  0  0  0  0  0
    1.1456    0.7025    0.3305 C   0  0  0  0  0  0
   -1.9061    0.2244   -2.0562 C   0  0  0  0  0  0
   -2.3580    1.3730   -2.0398 O   0  0  0  0  0  0
   -2.4083   -0.7262   -2.8943 N   0  0  0  0  0  0
    2.1702    1.1840   -0.3946 N   0  0  0  0  0  0
    1.3132    0.1097    1.3983 O   0  0  0  0  0  0
    4.0278    1.9910    1.0219 C   0  0  0  0  0  0
    4.3819    2.7265    1.8420 N   0  0  0  0  0  0
   -4.2711   -1.7170    1.8445 C   0  0  0  0  0  0
   -4.8326   -2.5385    0.8630 C   0  0  0  0  0  0
   -5.2009   -3.8429    1.1822 C   0  0  0  0  0  0
   -5.0052   -4.3187    2.4774 C   0  0  0  0  0  0
   -4.4443   -3.5026    3.4580 C   0  0  0  0  0  0
   -4.0760   -2.1978    3.1412 C   0  0  0  0  0  0
   -3.4055   -0.3627   -3.9216 C   0  0  0  0  0  0
   -2.6257   -0.1183   -5.2372 C   0  0  0  0  0  0
   -1.7911   -1.3566   -5.6442 C   0  0  0  0  0  0
   -0.8856   -1.7815   -4.4634 C   0  0  0  0  0  0
   -1.7089   -1.9963   -3.1711 C   0  0  0  0  0  0
   -0.9978   -1.1310   -6.9421 C   0  0  0  0  0  0
    4.9393   -0.5693    0.7494 H   0  0  0  0  0  0
    3.5762   -1.1926   -0.2700 H   0  0  0  0  0  0
    5.5580    1.0842   -1.0922 H   0  0  0  0  0  0
    4.1948    0.4559   -2.1085 H   0  0  0  0  0  0
   -1.5301   -0.5503    2.2080 H   0  0  0  0  0  0
   -2.0483    1.9276    0.6261 H   0  0  0  0  0  0
   -0.8331    1.6793    1.8515 H   0  0  0  0  0  0
   -0.1783    1.9383   -0.7901 H   0  0  0  0  0  0
   -0.0486   -0.6800   -1.5579 H   0  0  0  0  0  0
   -2.2946   -1.7098   -0.2647 H   0  0  0  0  0  0
   -0.7191   -1.7865    0.4465 H   0  0  0  0  0  0
    1.9663    1.7851   -1.1798 H   0  0  0  0  0  0
   -4.9830   -2.1745   -0.1428 H   0  0  0  0  0  0
   -5.6365   -4.4831    0.4292 H   0  0  0  0  0  0
   -5.2915   -5.3307    2.7240 H   0  0  0  0  0  0
   -4.2957   -3.8798    4.4590 H   0  0  0  0  0  0
   -3.6388   -1.5658    3.9007 H   0  0  0  0  0  0
   -4.0768   -1.2152   -4.0329 H   0  0  0  0  0  0
   -4.0614    0.4530   -3.6128 H   0  0  0  0  0  0
   -3.3132    0.1458   -6.0415 H   0  0  0  0  0  0
   -1.9816    0.7565   -5.1288 H   0  0  0  0  0  0
   -2.4983   -2.1722   -5.8077 H   0  0  0  0  0  0
   -0.3441   -2.6922   -4.7222 H   0  0  0  0  0  0
   -0.1060   -1.0372   -4.2908 H   0  0  0  0  0  0
   -1.1534   -2.3956   -2.3233 H   0  0  0  0  0  0
   -2.4807   -2.7483   -3.3408 H   0  0  0  0  0  0
   -0.2755   -0.3210   -6.8319 H   0  0  0  0  0  0
   -1.6602   -0.8748   -7.7695 H   0  0  0  0  0  0
   -0.4488   -2.0282   -7.2298 H   0  0  0  0  0  0
  1  2  1  0  0  0
  1  3  1  0  0  0
  1 16  1  0  0  0
  1 18  1  0  0  0
  2  3  1  0  0  0
  2 32  1  0  0  0
  2 33  1  0  0  0
  3 34  1  0  0  0
  3 35  1  0  0  0
  4  5  2  0  0  0
  4  6  2  0  0  0
  4  7  1  0  0  0
  4 20  1  0  0  0
  7  8  1  0  0  0
  7 11  1  0  0  0
  7 36  1  0  0  0
  8  9  1  0  0  0
  8 37  1  0  0  0
  8 38  1  0  0  0
  9 10  1  0  0  0
  9 12  1  0  0  0
  9 39  1  0  0  0
 10 11  1  0  0  0
 10 13  1  0  0  0
 10 40  1  0  0  0
 11 41  1  0  0  0
 11 42  1  0  0  0
 12 16  1  0  0  0
 12 17  2  0  0  0
 13 14  2  0  0  0
 13 15  1  0  0  0
 15 26  1  0  0  0
 15 30  1  0  0  0
 16 43  1  0  0  0
 18 19  3  0  0  0
 20 21  2  0  0  0
 20 25  1  0  0  0
 21 22  1  0  0  0
 21 44  1  0  0  0
 22 23  2  0  0  0
 22 45  1  0  0  0
 23 24  1  0  0  0
 23 46  1  0  0  0
 24 25  2  0  0  0
 24 47  1  0  0  0
 25 48  1  0  0  0
 26 27  1  0  0  0
 26 49  1  0  0  0
 26 50  1  0  0  0
 27 28  1  0  0  0
 27 51  1  0  0  0
 27 52  1  0  0  0
 28 29  1  0  0  0
 28 31  1  0  0  0
 28 53  1  0  0  0
 29 30  1  0  0  0
 29 54  1  0  0  0
 29 55  1  0  0  0
 30 56  1  0  0  0
 30 57  1  0  0  0
 31 58  1  0  0  0
 31 59  1  0  0  0
 31 60  1  0  0  0
M  END
> <chembl_id>
CHEMBL3093826

> <chembl_pref_name>
None

> <i_m_ct_stereo_status>
1

> <s_m_source_file>
sdf/inactives_sanitized.sdf

> <i_m_source_file_index>
177

> <i_lp_mmshare_version>
49012

> <i_f3d_flags>
0

> <s_epik_input>
W0NIMl0xW0NIMl1bQ0hdKFtDSDNdKVtDSDJdW0NIMl1OMUMoPU8pW0NASF0oW0NIMl0yKVtDQEhdKEMoPU8pW05IXUMzKEMjTilbQ0gyXVtDSDJdMylbQ0gyXVtDQEhdMlMoPU8pKD1PKWM0W2NIXVtjSF1bY0hdW2NIXVtjSF00

> <s_epik_cmdline>
J2VwaWtfcHl0aG9uJywgJy1waHQnLCAnMC41JywgJy1waCcsICc3LjUnLCAnLW50JywgJy1tYScsICcyMDAnLCAnLWltYWUnLCAnPGluZmlsZS5tYWU+JywgJy1vbWFlJywgJzxvdXRmaWxlLm1hZT4n

> <r_lp_tautomer_probability>
1

> <r_epik_Ionization_Penalty>
  0.0000

> <r_epik_Ionization_Penalty_Charging>
  0.0000

> <r_epik_Ionization_Penalty_Neutral>
  0.0000

> <r_epik_State_Penalty>
 -0.0000

> <r_epik_Charging_Adjusted_Penalty>
0

> <i_epik_Tot_Q>
0

> <i_epik_Tot_abs_Q>
0

> <s_lp_Force_Field>
OPLS3e

> <r_lp_Energy>
23.674597

> <b_lp_Chiralities_Consistent>
1

> <s_lp_Variant>
sdf/inactives_sanitized.sdf:177-1

$$$$
sdf/inactives_sanitized.sdf:178
                    3D
 Schrodinger Suite 2020-1.
 40 41  0  0  1  0            999 V2000
   -5.0656    0.6852    1.6799 C   0  0  0  0  0  0
   -4.0623    0.7223    2.6505 C   0  0  0  0  0  0
   -2.7474    1.0146    2.2838 C   0  0  0  0  0  0
   -2.4384    1.2692    0.9460 C   0  0  0  0  0  0
   -3.4411    1.2339   -0.0247 C   0  0  0  0  0  0
   -4.7549    0.9408    0.3435 C   0  0  0  0  0  0
   -0.7780    1.6327    0.4800 S   0  0  0  0  0  0
    0.0683    0.0260    0.5224 C   0  0  0  0  0  0
    1.5809    0.0417    0.1745 C   0  0  1  0  0  0
    2.2811   -1.3478    0.3497 C   0  0  1  0  0  0
    3.7897   -1.3087   -0.0256 C   0  0  0  0  0  0
    3.9861   -0.7661   -1.4550 C   0  0  0  0  0  0
    3.3103    0.6040   -1.6482 C   0  0  0  0  0  0
    1.8190    0.5506   -1.2716 C   0  0  0  0  0  0
    2.1299   -1.9029    1.7868 C   0  0  0  0  0  0
    1.4514   -2.9116    1.9843 O   0  0  0  0  0  0
    2.7466   -1.2372    2.7807 N   0  0  0  0  0  0
    2.7273   -1.6374    4.1849 C   0  0  0  0  0  0
    3.4179   -2.9167    4.4262 C   0  0  0  0  0  0
    3.9607   -3.9208    4.6158 N   0  0  0  0  0  0
   -4.4467    0.4065    4.3030 Cl  0  0  0  0  0  0
   -6.0840    0.4588    1.9601 H   0  0  0  0  0  0
   -1.9714    1.0423    3.0349 H   0  0  0  0  0  0
   -3.2056    1.4298   -1.0606 H   0  0  0  0  0  0
   -5.5316    0.9114   -0.4063 H   0  0  0  0  0  0
   -0.0875   -0.3668    1.5268 H   0  0  0  0  0  0
   -0.4593   -0.6514   -0.1501 H   0  0  0  0  0  0
    2.0714    0.7422    0.8540 H   0  0  0  0  0  0
    1.7844   -2.0816   -0.2892 H   0  0  0  0  0  0
    4.3421   -0.6240    0.6212 H   0  0  0  0  0  0
    4.2297   -2.3077   -0.0090 H   0  0  0  0  0  0
    5.0507   -0.6875   -1.6792 H   0  0  0  0  0  0
    3.5776   -1.4773   -2.1750 H   0  0  0  0  0  0
    3.8158    1.3534   -1.0371 H   0  0  0  0  0  0
    3.4205    0.9287   -2.6835 H   0  0  0  0  0  0
    1.2868   -0.0922   -1.9749 H   0  0  0  0  0  0
    1.3741    1.5365   -1.4078 H   0  0  0  0  0  0
    3.3248   -0.4435    2.5461 H   0  0  0  0  0  0
    3.2249   -0.8705    4.7780 H   0  0  0  0  0  0
    1.7026   -1.7130    4.5519 H   0  0  0  0  0  0
  1  6  2  0  0  0
  1  2  1  0  0  0
  1 22  1  0  0  0
  2  3  2  0  0  0
  2 21  1  0  0  0
  3  4  1  0  0  0
  3 23  1  0  0  0
  4  7  1  0  0  0
  4  5  2  0  0  0
  5  6  1  0  0  0
  5 24  1  0  0  0
  6 25  1  0  0  0
  7  8  1  0  0  0
  8  9  1  0  0  0
  8 26  1  0  0  0
  8 27  1  0  0  0
  9 14  1  0  0  0
  9 10  1  0  0  0
  9 28  1  0  0  0
 10 11  1  0  0  0
 10 15  1  0  0  0
 10 29  1  0  0  0
 11 12  1  0  0  0
 11 30  1  0  0  0
 11 31  1  0  0  0
 12 13  1  0  0  0
 12 32  1  0  0  0
 12 33  1  0  0  0
 13 14  1  0  0  0
 13 34  1  0  0  0
 13 35  1  0  0  0
 14 36  1  0  0  0
 14 37  1  0  0  0
 15 16  2  0  0  0
 15 17  1  0  0  0
 17 18  1  0  0  0
 17 38  1  0  0  0
 18 19  1  0  0  0
 18 39  1  0  0  0
 18 40  1  0  0  0
 19 20  3  0  0  0
M  END
> <chembl_id>
CHEMBL202096

> <chembl_pref_name>
None

> <i_m_ct_stereo_status>
1

> <s_m_source_file>
sdf/inactives_sanitized.sdf

> <i_m_source_file_index>
178

> <i_lp_mmshare_version>
49012

> <i_f3d_flags>
0

> <s_epik_input>
Q2xjMVtjSF1bY0hdW2NIXWMoW2NIXTEpU1tDSDJdW0NASF0yW0NAQEhdKFtDSDJdW0NIMl1bQ0gyXVtDSDJdMilDKD1PKVtOSF1bQ0gyXUMjTg==

> <s_epik_cmdline>
J2VwaWtfcHl0aG9uJywgJy1waHQnLCAnMC41JywgJy1waCcsICc3LjUnLCAnLW50JywgJy1tYScsICcyMDAnLCAnLWltYWUnLCAnPGluZmlsZS5tYWU+JywgJy1vbWFlJywgJzxvdXRmaWxlLm1hZT4n

> <r_lp_tautomer_probability>
1

> <r_epik_Ionization_Penalty>
  0.0000

> <r_epik_Ionization_Penalty_Charging>
  0.0000

> <r_epik_Ionization_Penalty_Neutral>
  0.0000

> <r_epik_State_Penalty>
 -0.0000

> <r_epik_Charging_Adjusted_Penalty>
0

> <i_epik_Tot_Q>
0

> <i_epik_Tot_abs_Q>
0

> <s_lp_Force_Field>
OPLS3e

> <r_lp_Energy>
22.5222

> <b_lp_Chiralities_Consistent>
1

> <s_lp_Variant>
sdf/inactives_sanitized.sdf:178-1

$$$$
sdf/inactives_sanitized.sdf:179
                    3D
 Schrodinger Suite 2020-1.
 40 41  0  0  1  0            999 V2000
    0.3243    2.8445    3.9833 C   0  0  0  0  0  0
    1.2236    3.2769    3.0107 C   0  0  0  0  0  0
    0.9871    2.9781    1.6716 C   0  0  0  0  0  0
   -0.1441    2.2398    1.3106 C   0  0  0  0  0  0
   -1.0469    1.8173    2.2903 C   0  0  0  0  0  0
   -0.8107    2.1181    3.6291 C   0  0  0  0  0  0
   -0.4052    1.9093   -0.1510 C   0  0  0  0  0  0
   -0.0309    0.1745   -0.5653 S   0  0  0  0  0  0
    1.7682    0.0432   -0.2452 C   0  0  2  0  0  0
    2.5371   -0.7425   -1.3608 C   0  0  1  0  0  0
    4.0410   -0.8486   -0.9743 C   0  0  0  0  0  0
    4.3419   -1.3197    0.4653 C   0  0  0  0  0  0
    3.5533   -0.5083    1.5085 C   0  0  0  0  0  0
    2.0456   -0.4577    1.1963 C   0  0  0  0  0  0
    1.9524   -2.1662   -1.5847 C   0  0  0  0  0  0
    1.9577   -3.0096   -0.6871 O   0  0  0  0  0  0
    1.4419   -2.4207   -2.8028 N   0  0  0  0  0  0
    0.8123   -3.6797   -3.1922 C   0  0  0  0  0  0
   -0.4384   -3.9462   -2.4592 C   0  0  0  0  0  0
   -1.4206   -4.1554   -1.8843 N   0  0  0  0  0  0
    0.5077    3.0766    5.0221 H   0  0  0  0  0  0
    2.1001    3.8407    3.2941 H   0  0  0  0  0  0
    1.6868    3.3123    0.9193 H   0  0  0  0  0  0
   -1.9255    1.2516    2.0156 H   0  0  0  0  0  0
   -1.5041    1.7892    4.3893 H   0  0  0  0  0  0
   -1.4547    2.0996   -0.3791 H   0  0  0  0  0  0
    0.1684    2.5695   -0.8030 H   0  0  0  0  0  0
    2.1331    1.0691   -0.3111 H   0  0  0  0  0  0
    2.4434   -0.2264   -2.3188 H   0  0  0  0  0  0
    4.5864   -1.4277   -1.7215 H   0  0  0  0  0  0
    4.4883    0.1319   -1.1456 H   0  0  0  0  0  0
    4.1094   -2.3791    0.5723 H   0  0  0  0  0  0
    5.4108   -1.2326    0.6636 H   0  0  0  0  0  0
    3.7122   -0.9286    2.5024 H   0  0  0  0  0  0
    3.9459    0.5092    1.5443 H   0  0  0  0  0  0
    1.5629    0.1882    1.9282 H   0  0  0  0  0  0
    1.6097   -1.4457    1.3452 H   0  0  0  0  0  0
    1.4075   -1.6726   -3.4798 H   0  0  0  0  0  0
    0.5772   -3.6436   -4.2559 H   0  0  0  0  0  0
    1.4959   -4.5174   -3.0435 H   0  0  0  0  0  0
  1  6  2  0  0  0
  1  2  1  0  0  0
  1 21  1  0  0  0
  2  3  2  0  0  0
  2 22  1  0  0  0
  3  4  1  0  0  0
  3 23  1  0  0  0
  4  5  2  0  0  0
  4  7  1  0  0  0
  5  6  1  0  0  0
  5 24  1  0  0  0
  6 25  1  0  0  0
  7  8  1  0  0  0
  7 26  1  0  0  0
  7 27  1  0  0  0
  8  9  1  0  0  0
  9 14  1  0  0  0
  9 10  1  0  0  0
  9 28  1  0  0  0
 10 11  1  0  0  0
 10 15  1  0  0  0
 10 29  1  0  0  0
 11 12  1  0  0  0
 11 30  1  0  0  0
 11 31  1  0  0  0
 12 13  1  0  0  0
 12 32  1  0  0  0
 12 33  1  0  0  0
 13 14  1  0  0  0
 13 34  1  0  0  0
 13 35  1  0  0  0
 14 36  1  0  0  0
 14 37  1  0  0  0
 15 16  2  0  0  0
 15 17  1  0  0  0
 17 18  1  0  0  0
 17 38  1  0  0  0
 18 19  1  0  0  0
 18 39  1  0  0  0
 18 40  1  0  0  0
 19 20  3  0  0  0
M  END
> <chembl_id>
CHEMBL372125

> <chembl_pref_name>
None

> <i_m_ct_stereo_status>
1

> <s_m_source_file>
sdf/inactives_sanitized.sdf

> <i_m_source_file_index>
179

> <i_lp_mmshare_version>
49012

> <i_f3d_flags>
0

> <s_epik_input>
W2NIXTFbY0hdW2NIXVtjSF1bY0hdYzFbQ0gyXVNbQ0BASF0yW0NAQEhdKFtDSDJdW0NIMl1bQ0gyXVtDSDJdMilDKD1PKVtOSF1bQ0gyXUMjTg==

> <s_epik_cmdline>
J2VwaWtfcHl0aG9uJywgJy1waHQnLCAnMC41JywgJy1waCcsICc3LjUnLCAnLW50JywgJy1tYScsICcyMDAnLCAnLWltYWUnLCAnPGluZmlsZS5tYWU+JywgJy1vbWFlJywgJzxvdXRmaWxlLm1hZT4n

> <r_lp_tautomer_probability>
1

> <r_epik_Ionization_Penalty>
  0.0000

> <r_epik_Ionization_Penalty_Charging>
  0.0000

> <r_epik_Ionization_Penalty_Neutral>
  0.0000

> <r_epik_State_Penalty>
 -0.0000

> <r_epik_Charging_Adjusted_Penalty>
0

> <i_epik_Tot_Q>
0

> <i_epik_Tot_abs_Q>
0

> <s_lp_Force_Field>
OPLS3e

> <r_lp_Energy>
18.681425

> <b_lp_Chiralities_Consistent>
1

> <s_lp_Variant>
sdf/inactives_sanitized.sdf:179-1

$$$$
sdf/inactives_sanitized.sdf:180
                    3D
 Schrodinger Suite 2020-1.
 56 56  0  0  1  0            999 V2000
    5.2786    0.6915   -2.8737 C   0  0  0  0  0  0
    3.5503    0.6302   -1.1695 C   0  0  0  0  0  0
    2.0363    0.1840   -0.9952 C   0  0  0  0  0  0
    3.9983    0.4112   -2.4243 N   0  0  0  0  0  0
    5.7195    0.3067   -4.1214 N   0  0  0  0  0  0
    6.9762    0.7035   -4.3766 N   0  0  0  0  0  0
    6.3667    1.3466   -2.3066 C   0  0  0  0  0  0
   -0.7145    1.4035   -0.1307 C   0  0  0  0  0  0
   -0.0034    0.3325    0.4070 N   0  0  0  0  0  0
    1.4759    0.3100    0.4306 C   0  0  1  0  0  0
    7.3657    1.3152   -3.2826 C   0  0  0  0  0  0
    1.3865   -0.2252   -1.9643 O   0  0  0  0  0  0
    4.1845    1.1104   -0.2273 O   0  0  0  0  0  0
   -0.2390    2.3951   -0.6899 O   0  0  0  0  0  0
   -2.0274    1.1961    0.0810 O   0  0  0  0  0  0
   -4.4446    1.6973    0.0005 C   0  0  0  0  0  0
   -2.9982    2.1563   -0.3286 C   0  0  0  0  0  0
    4.9778   -0.3779   -5.1727 C   0  0  0  0  0  0
    1.9929   -0.8699    1.2981 C   0  0  0  0  0  0
   -5.4575    2.8136   -0.3912 C   0  0  0  0  0  0
   -4.7696    0.3845   -0.7540 C   0  0  0  0  0  0
   -4.5771    1.4450    1.5228 C   0  0  0  0  0  0
    1.5477   -0.7981    2.7739 C   0  0  0  0  0  0
    2.1119   -1.9489    3.6254 C   0  0  0  0  0  0
   -5.4983    3.2172   -1.8779 C   0  0  0  0  0  0
    1.6679   -1.8799    5.0929 C   0  0  0  0  0  0
    3.3626   -0.0049   -3.0896 H   0  0  0  0  0  0
    6.4327    1.7962   -1.3269 H   0  0  0  0  0  0
   -0.4784   -0.2298    1.0978 H   0  0  0  0  0  0
    1.8035    1.2365    0.9090 H   0  0  0  0  0  0
    8.3550    1.7391   -3.1917 H   0  0  0  0  0  0
   -2.8933    2.3257   -1.4014 H   0  0  0  0  0  0
   -2.7917    3.1076    0.1655 H   0  0  0  0  0  0
    4.2464   -1.0558   -4.7315 H   0  0  0  0  0  0
    5.6560   -0.9589   -5.8002 H   0  0  0  0  0  0
    4.4613    0.3611   -5.7860 H   0  0  0  0  0  0
    1.6467   -1.8158    0.8758 H   0  0  0  0  0  0
    3.0838   -0.9033    1.2761 H   0  0  0  0  0  0
   -6.4635    2.5075   -0.0982 H   0  0  0  0  0  0
   -5.2504    3.7096    0.1971 H   0  0  0  0  0  0
   -5.8105    0.0897   -0.6148 H   0  0  0  0  0  0
   -4.1511   -0.4437   -0.4053 H   0  0  0  0  0  0
   -4.5956    0.4784   -1.8262 H   0  0  0  0  0  0
   -5.5954    1.1648    1.7966 H   0  0  0  0  0  0
   -4.3181    2.3337    2.1003 H   0  0  0  0  0  0
   -3.9237    0.6392    1.8604 H   0  0  0  0  0  0
    1.8665    0.1541    3.2009 H   0  0  0  0  0  0
    0.4585   -0.8148    2.8333 H   0  0  0  0  0  0
    1.7992   -2.9050    3.2031 H   0  0  0  0  0  0
    3.2021   -1.9376    3.5817 H   0  0  0  0  0  0
   -6.2396    4.0001   -2.0403 H   0  0  0  0  0  0
   -5.7718    2.3793   -2.5186 H   0  0  0  0  0  0
   -4.5405    3.6070   -2.2209 H   0  0  0  0  0  0
    2.0841   -2.7099    5.6643 H   0  0  0  0  0  0
    0.5820   -1.9293    5.1807 H   0  0  0  0  0  0
    2.0006   -0.9545    5.5645 H   0  0  0  0  0  0
  1  4  1  0  0  0
  1  5  1  0  0  0
  1  7  2  0  0  0
  2  4  1  0  0  0
  2  3  1  0  0  0
  2 13  2  0  0  0
  3 10  1  0  0  0
  3 12  2  0  0  0
  4 27  1  0  0  0
  5  6  1  0  0  0
  5 18  1  0  0  0
  6 11  2  0  0  0
  7 11  1  0  0  0
  7 28  1  0  0  0
  8  9  1  0  0  0
  8 14  2  0  0  0
  8 15  1  0  0  0
  9 10  1  0  0  0
  9 29  1  0  0  0
 10 19  1  0  0  0
 10 30  1  0  0  0
 11 31  1  0  0  0
 15 17  1  0  0  0
 16 17  1  0  0  0
 16 20  1  0  0  0
 16 21  1  0  0  0
 16 22  1  0  0  0
 17 32  1  0  0  0
 17 33  1  0  0  0
 18 34  1  0  0  0
 18 35  1  0  0  0
 18 36  1  0  0  0
 19 23  1  0  0  0
 19 37  1  0  0  0
 19 38  1  0  0  0
 20 25  1  0  0  0
 20 39  1  0  0  0
 20 40  1  0  0  0
 21 41  1  0  0  0
 21 42  1  0  0  0
 21 43  1  0  0  0
 22 44  1  0  0  0
 22 45  1  0  0  0
 22 46  1  0  0  0
 23 24  1  0  0  0
 23 47  1  0  0  0
 23 48  1  0  0  0
 24 26  1  0  0  0
 24 49  1  0  0  0
 24 50  1  0  0  0
 25 51  1  0  0  0
 25 52  1  0  0  0
 25 53  1  0  0  0
 26 54  1  0  0  0
 26 55  1  0  0  0
 26 56  1  0  0  0
M  END
> <chembl_id>
CHEMBL360630

> <chembl_pref_name>
None

> <i_m_ct_stereo_status>
1

> <s_m_source_file>
sdf/inactives_sanitized.sdf

> <i_m_source_file_index>
180

> <i_lp_mmshare_version>
49012

> <i_f3d_flags>
0

> <s_epik_input>
W2NIXTFbY0hdbm4oW0NIM10pYzFbTkhdQyg9TylDKD1PKVtDQEhdKFtDSDJdW0NIMl1bQ0gyXVtDSDNdKVtOSF1DKD1PKU9bQ0gyXUMoW0NIM10pKFtDSDNdKVtDSDJdW0NIM10=

> <s_epik_cmdline>
J2VwaWtfcHl0aG9uJywgJy1waHQnLCAnMC41JywgJy1waCcsICc3LjUnLCAnLW50JywgJy1tYScsICcyMDAnLCAnLWltYWUnLCAnPGluZmlsZS5tYWU+JywgJy1vbWFlJywgJzxvdXRmaWxlLm1hZT4n

> <r_lp_tautomer_probability>
1

> <r_epik_Ionization_Penalty>
  0.0000

> <r_epik_Ionization_Penalty_Charging>
  0.0000

> <r_epik_Ionization_Penalty_Neutral>
  0.0000

> <r_epik_State_Penalty>
 -0.0000

> <r_epik_Charging_Adjusted_Penalty>
0

> <i_epik_Tot_Q>
0

> <i_epik_Tot_abs_Q>
0

> <s_epik_Chemistry_Notes>
This compound has an ester and may undergo hydrolysis at high or low pH.

> <s_lp_Force_Field>
OPLS3e

> <r_lp_Energy>
28.095908

> <b_lp_Chiralities_Consistent>
1

> <s_lp_Variant>
sdf/inactives_sanitized.sdf:180-1

$$$$
sdf/inactives_sanitized.sdf:181
                    3D
 Schrodinger Suite 2020-1.
 51 52  0  0  1  0            999 V2000
    6.8326   -3.2809    5.5726 S   0  0  0  0  0  0
    0.0504   -0.1202    0.0177 C   0  0  1  0  0  0
   -0.4484   -0.9884   -1.1589 C   0  0  0  0  0  0
    1.5839   -0.0440    0.0152 C   0  0  0  0  0  0
   -3.6869   -2.5490   -2.7646 N   0  0  0  0  0  0
    5.9208   -2.4962    4.2457 C   0  0  0  0  0  0
    2.3148   -0.6666    1.0344 C   0  0  0  0  0  0
    3.7166   -0.6141    1.0714 C   0  0  0  0  0  0
   -2.6420   -2.8407   -2.3616 C   0  0  0  0  0  0
    8.2401   -3.3526    5.1640 O   0  0  0  0  0  0
    6.4585   -2.6069    6.8211 O   0  0  0  0  0  0
    4.4818   -1.2718    2.1736 C   0  0  0  0  0  0
   -0.6332    1.2780    0.0446 C   0  0  0  0  0  0
   -0.5074   -0.5229   -2.2984 O   0  0  0  0  0  0
    6.4439   -2.4753    2.9530 C   0  0  0  0  0  0
    4.6819   -1.9130    4.5088 C   0  0  0  0  0  0
    5.7280   -1.8647    1.9270 C   0  0  0  0  0  0
    3.9697   -1.3066    3.4782 C   0  0  0  0  0  0
   -0.7928   -2.2567   -0.8735 N   0  0  0  0  0  0
    6.1275   -5.0295    5.6021 C   0  0  0  0  0  0
   -1.3117   -3.2129   -1.8477 C   0  0  0  0  0  0
    2.2741    0.6426   -0.9911 C   0  0  0  0  0  0
    4.3778    0.0778    0.0464 C   0  0  0  0  0  0
    3.6648    0.7011   -0.9758 C   0  0  0  0  0  0
   -0.2239    2.2113    1.2144 C   0  0  0  0  0  0
   -0.5283    1.6095    2.6007 C   0  0  0  0  0  0
   -0.8813    3.5958    1.0665 C   0  0  0  0  0  0
   -0.2555   -0.6314    0.9325 H   0  0  0  0  0  0
    1.7816   -1.2029    1.8060 H   0  0  0  0  0  0
   -0.4346    1.7959   -0.8958 H   0  0  0  0  0  0
   -1.7166    1.1428    0.0726 H   0  0  0  0  0  0
    7.4001   -2.9292    2.7375 H   0  0  0  0  0  0
    4.2690   -1.9261    5.5069 H   0  0  0  0  0  0
    6.1483   -1.8652    0.9319 H   0  0  0  0  0  0
    3.0177   -0.8506    3.7071 H   0  0  0  0  0  0
   -0.7641   -2.5640    0.0877 H   0  0  0  0  0  0
    6.6212   -5.5941    6.3926 H   0  0  0  0  0  0
    6.3101   -5.5021    4.6376 H   0  0  0  0  0  0
    5.0566   -4.9772    5.7959 H   0  0  0  0  0  0
   -1.3949   -4.1912   -1.3743 H   0  0  0  0  0  0
   -0.6253   -3.3211   -2.6891 H   0  0  0  0  0  0
    1.7335    1.1312   -1.7886 H   0  0  0  0  0  0
    5.4556    0.1499    0.0414 H   0  0  0  0  0  0
    4.1909    1.2330   -1.7548 H   0  0  0  0  0  0
    0.8541    2.3703    1.1595 H   0  0  0  0  0  0
   -1.5862    1.3669    2.7071 H   0  0  0  0  0  0
   -0.2668    2.3052    3.3988 H   0  0  0  0  0  0
    0.0430    0.6988    2.7798 H   0  0  0  0  0  0
   -1.9691    3.5288    1.1149 H   0  0  0  0  0  0
   -0.6201    4.0586    0.1140 H   0  0  0  0  0  0
   -0.5564    4.2755    1.8552 H   0  0  0  0  0  0
  1  6  1  0  0  0
  1 10  2  0  0  0
  1 11  2  0  0  0
  1 20  1  0  0  0
  2  4  1  0  0  0
  2  3  1  0  0  0
  2 13  1  0  0  0
  2 28  1  0  0  0
  3 14  2  0  0  0
  3 19  1  0  0  0
  4  7  2  0  0  0
  4 22  1  0  0  0
  5  9  3  0  0  0
  6 15  2  0  0  0
  6 16  1  0  0  0
  7  8  1  0  0  0
  7 29  1  0  0  0
  8 12  1  0  0  0
  8 23  2  0  0  0
  9 21  1  0  0  0
 12 18  1  0  0  0
 12 17  2  0  0  0
 13 25  1  0  0  0
 13 30  1  0  0  0
 13 31  1  0  0  0
 15 17  1  0  0  0
 15 32  1  0  0  0
 16 18  2  0  0  0
 16 33  1  0  0  0
 17 34  1  0  0  0
 18 35  1  0  0  0
 19 21  1  0  0  0
 19 36  1  0  0  0
 20 37  1  0  0  0
 20 38  1  0  0  0
 20 39  1  0  0  0
 21 40  1  0  0  0
 21 41  1  0  0  0
 22 24  2  0  0  0
 22 42  1  0  0  0
 23 24  1  0  0  0
 23 43  1  0  0  0
 24 44  1  0  0  0
 25 26  1  0  0  0
 25 27  1  0  0  0
 25 45  1  0  0  0
 26 46  1  0  0  0
 26 47  1  0  0  0
 26 48  1  0  0  0
 27 49  1  0  0  0
 27 50  1  0  0  0
 27 51  1  0  0  0
M  END
> <chembl_id>
CHEMBL123178

> <chembl_pref_name>
None

> <s_m_source_file>
sdf/inactives_sanitized.sdf

> <i_m_source_file_index>
181

> <i_lp_mmshare_version>
49012

> <i_m_ct_stereo_status>
1

> <i_f3d_flags>
0

> <s_epik_input>
Tz1TKD1PKShbQ0gzXSljMVtjSF1bY0hdYyhbY0hdW2NIXTEpLWMoW2NIXVtjSF1bY0hdMilbY0hdYzJbQ0BASF0oW0NIMl1bQ0hdKFtDSDNdKVtDSDNdKUMoPU8pW05IXVtDSDJdQyNO

> <s_epik_cmdline>
J2VwaWtfcHl0aG9uJywgJy1waHQnLCAnMC41JywgJy1waCcsICc3LjUnLCAnLW50JywgJy1tYScsICcyMDAnLCAnLWltYWUnLCAnPGluZmlsZS5tYWU+JywgJy1vbWFlJywgJzxvdXRmaWxlLm1hZT4n

> <r_lp_tautomer_probability>
1

> <r_epik_Ionization_Penalty>
  0.0000

> <r_epik_Ionization_Penalty_Charging>
  0.0000

> <r_epik_Ionization_Penalty_Neutral>
  0.0000

> <r_epik_State_Penalty>
 -0.0000

> <r_epik_Charging_Adjusted_Penalty>
0

> <i_epik_Tot_Q>
0

> <i_epik_Tot_abs_Q>
0

> <s_lp_Force_Field>
OPLS3e

> <r_lp_Energy>
22.529636

> <b_lp_Chiralities_Consistent>
1

> <s_lp_Variant>
sdf/inactives_sanitized.sdf:181-1

$$$$
sdf/inactives_sanitized.sdf:182
                    3D
 Schrodinger Suite 2020-1.
 66 67  0  0  1  0            999 V2000
   -0.7333   -1.8265    0.0774 C   0  0  0  0  0  0
   -0.1777   -0.4127   -0.3788 C   0  0  0  0  0  0
    2.6606    0.9750   -2.1688 C   0  0  0  0  0  0
   -2.0078   -1.7628    0.5105 N   0  0  0  0  0  0
    1.6354    0.9172   -1.2330 N   0  0  0  0  0  0
    1.3487   -0.3226   -0.4879 C   0  0  1  0  0  0
    2.7493    2.2399   -2.6362 O   0  0  0  0  0  0
    3.7133    2.6128   -3.6201 C   0  0  2  0  0  0
   -2.7967   -2.8956    1.0097 C   0  0  1  0  0  0
   -0.9632    0.5159   -0.6068 O   0  0  0  0  0  0
   -0.0330   -2.8396    0.0380 O   0  0  0  0  0  0
    3.3876    0.0425   -2.5205 O   0  0  0  0  0  0
   -2.2102   -3.6045    2.2391 C   0  0  0  0  0  0
    3.9604    4.1364   -3.5498 C   0  0  0  0  0  0
    3.2630    2.2270   -5.0553 C   0  0  0  0  0  0
    4.3229    2.6372   -6.1102 C   0  0  1  0  0  0
    5.0575    4.5540   -4.5589 C   0  0  1  0  0  0
    4.5915    4.1593   -5.9838 C   0  0  0  0  0  0
    1.9959   -0.3293    0.9271 C   0  0  0  0  0  0
   -4.2455   -2.4544    1.2772 C   0  0  0  0  0  0
   -1.5575   -2.8825    3.2472 C   0  0  0  0  0  0
   -2.3047   -4.9968    2.3375 C   0  0  0  0  0  0
    5.3729    6.0571   -4.4637 C   0  0  0  0  0  0
    5.6052    1.7803   -6.0458 C   0  0  0  0  0  0
    3.5399   -0.3193    0.9191 C   0  0  0  0  0  0
    4.1803   -0.3926    2.3193 C   0  0  0  0  0  0
    3.9605   -1.7270    3.0502 C   0  0  0  0  0  0
   -1.0110   -3.5463    4.3423 C   0  0  0  0  0  0
   -1.7588   -5.6605    3.4332 C   0  0  0  0  0  0
   -1.1144   -4.9324    4.4306 C   0  0  0  0  0  0
   -2.4848   -0.8738    0.4630 H   0  0  0  0  0  0
    1.2104    1.7768   -0.9171 H   0  0  0  0  0  0
    1.7012   -1.1891   -1.0536 H   0  0  0  0  0  0
    4.6554    2.1128   -3.3878 H   0  0  0  0  0  0
   -2.8345   -3.6168    0.1893 H   0  0  0  0  0  0
    3.0483    4.6943   -3.7706 H   0  0  0  0  0  0
    4.2691    4.4303   -2.5454 H   0  0  0  0  0  0
    3.0896    1.1520   -5.1217 H   0  0  0  0  0  0
    2.3278    2.7368   -5.2939 H   0  0  0  0  0  0
    3.8701    2.4789   -7.0905 H   0  0  0  0  0  0
    5.9674    4.0019   -4.3201 H   0  0  0  0  0  0
    5.3456    4.4705   -6.7085 H   0  0  0  0  0  0
    3.6976    4.7269   -6.2498 H   0  0  0  0  0  0
    1.6473    0.5359    1.4949 H   0  0  0  0  0  0
    1.6634   -1.2112    1.4752 H   0  0  0  0  0  0
   -4.8736   -3.3040    1.5478 H   0  0  0  0  0  0
   -4.6893   -1.9925    0.3941 H   0  0  0  0  0  0
   -4.2993   -1.7295    2.0909 H   0  0  0  0  0  0
   -1.4721   -1.8073    3.1851 H   0  0  0  0  0  0
   -2.7994   -5.5674    1.5649 H   0  0  0  0  0  0
    4.4967    6.6661   -4.6898 H   0  0  0  0  0  0
    6.1618    6.3386   -5.1621 H   0  0  0  0  0  0
    5.7138    6.3256   -3.4632 H   0  0  0  0  0  0
    6.1168    1.8572   -5.0871 H   0  0  0  0  0  0
    6.3131    2.0786   -6.8196 H   0  0  0  0  0  0
    5.3760    0.7263   -6.2065 H   0  0  0  0  0  0
    3.9108   -1.1440    0.3086 H   0  0  0  0  0  0
    3.8908    0.5944    0.4385 H   0  0  0  0  0  0
    5.2539   -0.2266    2.2200 H   0  0  0  0  0  0
    3.8095    0.4265    2.9371 H   0  0  0  0  0  0
    4.5025   -1.7424    3.9960 H   0  0  0  0  0  0
    4.3150   -2.5684    2.4537 H   0  0  0  0  0  0
    2.9081   -1.8963    3.2783 H   0  0  0  0  0  0
   -0.5083   -2.9891    5.1191 H   0  0  0  0  0  0
   -1.8324   -6.7356    3.5082 H   0  0  0  0  0  0
   -0.6897   -5.4473    5.2798 H   0  0  0  0  0  0
  1  2  1  0  0  0
  1  4  1  0  0  0
  1 11  2  0  0  0
  2  6  1  0  0  0
  2 10  2  0  0  0
  3  5  1  0  0  0
  3  7  1  0  0  0
  3 12  2  0  0  0
  4  9  1  0  0  0
  4 31  1  0  0  0
  5  6  1  0  0  0
  5 32  1  0  0  0
  6 19  1  0  0  0
  6 33  1  0  0  0
  7  8  1  0  0  0
  8 14  1  0  0  0
  8 15  1  0  0  0
  8 34  1  0  0  0
  9 13  1  0  0  0
  9 20  1  0  0  0
  9 35  1  0  0  0
 13 21  2  0  0  0
 13 22  1  0  0  0
 14 17  1  0  0  0
 14 36  1  0  0  0
 14 37  1  0  0  0
 15 16  1  0  0  0
 15 38  1  0  0  0
 15 39  1  0  0  0
 16 18  1  0  0  0
 16 24  1  0  0  0
 16 40  1  0  0  0
 17 23  1  0  0  0
 17 18  1  0  0  0
 17 41  1  0  0  0
 18 42  1  0  0  0
 18 43  1  0  0  0
 19 25  1  0  0  0
 19 44  1  0  0  0
 19 45  1  0  0  0
 20 46  1  0  0  0
 20 47  1  0  0  0
 20 48  1  0  0  0
 21 28  1  0  0  0
 21 49  1  0  0  0
 22 29  2  0  0  0
 22 50  1  0  0  0
 23 51  1  0  0  0
 23 52  1  0  0  0
 23 53  1  0  0  0
 24 54  1  0  0  0
 24 55  1  0  0  0
 24 56  1  0  0  0
 25 26  1  0  0  0
 25 57  1  0  0  0
 25 58  1  0  0  0
 26 27  1  0  0  0
 26 59  1  0  0  0
 26 60  1  0  0  0
 27 61  1  0  0  0
 27 62  1  0  0  0
 27 63  1  0  0  0
 28 30  2  0  0  0
 28 64  1  0  0  0
 29 30  1  0  0  0
 29 65  1  0  0  0
 30 66  1  0  0  0
M  END
> <chembl_id>
CHEMBL195301

> <chembl_pref_name>
None

> <i_m_ct_stereo_status>
1

> <s_m_source_file>
sdf/inactives_sanitized.sdf

> <i_m_source_file_index>
182

> <i_lp_mmshare_version>
49012

> <i_f3d_flags>
0

> <s_epik_input>
W2NIXTFbY0hdW2NIXVtjSF1bY0hdYzFbQ0BASF0oW0NIM10pW05IXUMoPU8pQyg9TylbQ0BIXShbQ0gyXVtDSDJdW0NIMl1bQ0gzXSlbTkhdQyg9TylPW0NAQEhdMltDSDJdW0NASF0oW0NIM10pW0NIMl1bQ0BIXShbQ0gyXTIpW0NIM10=

> <s_epik_cmdline>
J2VwaWtfcHl0aG9uJywgJy1waHQnLCAnMC41JywgJy1waCcsICc3LjUnLCAnLW50JywgJy1tYScsICcyMDAnLCAnLWltYWUnLCAnPGluZmlsZS5tYWU+JywgJy1vbWFlJywgJzxvdXRmaWxlLm1hZT4n

> <r_lp_tautomer_probability>
1

> <r_epik_Ionization_Penalty>
  0.0000

> <r_epik_Ionization_Penalty_Charging>
  0.0000

> <r_epik_Ionization_Penalty_Neutral>
  0.0000

> <r_epik_State_Penalty>
 -0.0000

> <r_epik_Charging_Adjusted_Penalty>
0

> <i_epik_Tot_Q>
0

> <i_epik_Tot_abs_Q>
0

> <s_epik_Chemistry_Notes>
This compound has an ester and may undergo hydrolysis at high or low pH.

> <s_lp_Force_Field>
OPLS3e

> <r_lp_Energy>
35.651438

> <b_lp_Chiralities_Consistent>
1

> <s_lp_Variant>
sdf/inactives_sanitized.sdf:182-1

$$$$
sdf/inactives_sanitized.sdf:183
                    3D
 Schrodinger Suite 2020-1.
 60 61  0  0  1  0            999 V2000
   -1.2110    5.0804    0.8970 C   0  0  0  0  0  0
   -0.6313    4.3889    1.9732 C   0  0  0  0  0  0
   -1.4709    3.3264    2.2408 C   0  0  0  0  0  0
   -2.4892    3.4434    1.3330 N   0  0  0  0  0  0
   -2.3328    4.4983    0.5193 N   0  0  0  0  0  0
   -3.6141    2.5349    1.1330 C   0  0  0  0  0  0
   -3.4988    1.7369   -0.1997 C   0  0  2  0  0  0
   -4.6982    0.7787   -0.5088 C   0  0  0  0  0  0
   -4.4851    0.1296   -1.8991 C   0  0  0  0  0  0
   -6.0287    1.5685   -0.5634 C   0  0  0  0  0  0
   -2.2730    0.9854   -0.1977 O   0  0  0  0  0  0
   -1.1746    1.3904   -0.8755 C   0  0  0  0  0  0
   -0.1122    0.5476   -0.5553 N   0  0  0  0  0  0
    1.2597    0.8323   -1.0191 C   0  0  2  0  0  0
    1.3796    0.7350   -2.5408 C   0  0  0  0  0  0
   -4.8254   -0.3383    0.5563 C   0  0  0  0  0  0
   -1.1335    2.3684   -1.6253 O   0  0  0  0  0  0
    1.8499    1.6584   -3.2036 O   0  0  0  0  0  0
    0.9747   -0.5652   -3.2501 C   0  0  0  0  0  0
   -0.4856   -0.6908   -3.4200 N   0  0  3  0  0  0
   -1.2737   -2.2669   -3.4163 S   0  0  0  0  0  0
   -1.4404   -2.7269   -1.6938 C   0  0  0  0  0  0
   -2.6273   -2.0800   -3.9509 O   0  0  0  0  0  0
   -0.3546   -3.2344   -4.0268 O   0  0  0  0  0  0
   -0.2808   -2.7664   -0.9857 N   0  0  0  0  0  0
   -0.3515   -3.1161    0.3238 C   0  0  0  0  0  0
   -1.5513   -3.4426    0.9589 C   0  0  0  0  0  0
   -2.7307   -3.4078    0.2119 C   0  0  0  0  0  0
   -2.6831   -3.0434   -1.1353 C   0  0  0  0  0  0
    2.2344   -0.1507   -0.3390 C   0  0  0  0  0  0
   -0.7106    6.3163    0.1724 C   0  0  0  0  0  0
    0.3722    6.8229    0.7629 F   0  0  0  0  0  0
   -0.3848    6.0330   -1.0889 F   0  0  0  0  0  0
   -1.6382    7.2741    0.1493 F   0  0  0  0  0  0
    0.2903    4.6320    2.4811 H   0  0  0  0  0  0
   -1.4363    2.5192    2.9578 H   0  0  0  0  0  0
   -3.6696    1.8631    1.9901 H   0  0  0  0  0  0
   -4.5214    3.1388    1.1530 H   0  0  0  0  0  0
   -3.4841    2.4678   -1.0113 H   0  0  0  0  0  0
   -5.3056   -0.5378   -2.1666 H   0  0  0  0  0  0
   -3.5702   -0.4604   -1.9344 H   0  0  0  0  0  0
   -4.4093    0.8825   -2.6850 H   0  0  0  0  0  0
   -5.9631    2.4174   -1.2453 H   0  0  0  0  0  0
   -6.3185    1.9547    0.4141 H   0  0  0  0  0  0
   -6.8530    0.9411   -0.9063 H   0  0  0  0  0  0
   -0.2064   -0.0112    0.2800 H   0  0  0  0  0  0
    1.5368    1.8291   -0.6678 H   0  0  0  0  0  0
   -5.5982   -1.0605    0.2896 H   0  0  0  0  0  0
   -5.0882    0.0611    1.5360 H   0  0  0  0  0  0
   -3.8943   -0.8915    0.6734 H   0  0  0  0  0  0
    1.4211   -0.5737   -4.2449 H   0  0  0  0  0  0
    1.3606   -1.4422   -2.7323 H   0  0  0  0  0  0
   -1.0343    0.1477   -3.6302 H   0  0  0  0  0  0
    0.5820   -3.1344    0.8668 H   0  0  0  0  0  0
   -1.5671   -3.7189    2.0030 H   0  0  0  0  0  0
   -3.6748   -3.6572    0.6734 H   0  0  0  0  0  0
   -3.5888   -3.0120   -1.7233 H   0  0  0  0  0  0
    3.2679    0.0465   -0.6285 H   0  0  0  0  0  0
    2.0188   -1.1920   -0.5799 H   0  0  0  0  0  0
    2.1856   -0.0581    0.7469 H   0  0  0  0  0  0
  1  5  2  0  0  0
  1  2  1  0  0  0
  1 31  1  0  0  0
  2  3  2  0  0  0
  2 35  1  0  0  0
  3  4  1  0  0  0
  3 36  1  0  0  0
  4  5  1  0  0  0
  4  6  1  0  0  0
  6  7  1  0  0  0
  6 37  1  0  0  0
  6 38  1  0  0  0
  7 11  1  0  0  0
  7  8  1  0  0  0
  7 39  1  0  0  0
  8  9  1  0  0  0
  8 10  1  0  0  0
  8 16  1  0  0  0
  9 40  1  0  0  0
  9 41  1  0  0  0
  9 42  1  0  0  0
 10 43  1  0  0  0
 10 44  1  0  0  0
 10 45  1  0  0  0
 11 12  1  0  0  0
 12 17  2  0  0  0
 12 13  1  0  0  0
 13 14  1  0  0  0
 13 46  1  0  0  0
 14 30  1  0  0  0
 14 15  1  0  0  0
 14 47  1  0  0  0
 15 18  2  0  0  0
 15 19  1  0  0  0
 16 48  1  0  0  0
 16 49  1  0  0  0
 16 50  1  0  0  0
 19 20  1  0  0  0
 19 51  1  0  0  0
 19 52  1  0  0  0
 20 21  1  0  0  0
 20 53  1  0  0  0
 21 22  1  0  0  0
 21 23  2  0  0  0
 21 24  2  0  0  0
 22 25  2  0  0  0
 22 29  1  0  0  0
 25 26  1  0  0  0
 26 27  2  0  0  0
 26 54  1  0  0  0
 27 28  1  0  0  0
 27 55  1  0  0  0
 28 29  2  0  0  0
 28 56  1  0  0  0
 29 57  1  0  0  0
 30 58  1  0  0  0
 30 59  1  0  0  0
 30 60  1  0  0  0
 31 32  1  0  0  0
 31 33  1  0  0  0
 31 34  1  0  0  0
M  END
> <chembl_id>
CHEMBL234576

> <chembl_pref_name>
None

> <i_m_ct_stereo_status>
1

> <s_m_source_file>
sdf/inactives_sanitized.sdf

> <i_m_source_file_index>
183

> <i_lp_mmshare_version>
49012

> <i_f3d_flags>
0

> <s_epik_input>
RkMoRikoRiljMVtjSF1bY0hdbihuMSlbQ0gyXVtDQEhdKEMoW0NIM10pKFtDSDNdKVtDSDNdKU9DKD1PKVtOSF1bQ0BASF0oW0NIM10pQyg9TylbQ0gyXVtOSF1TKD1PKSg9TyljMm5bY0hdW2NIXVtjSF1bY0hdMg==

> <s_epik_cmdline>
J2VwaWtfcHl0aG9uJywgJy1waHQnLCAnMC41JywgJy1waCcsICc3LjUnLCAnLW50JywgJy1tYScsICcyMDAnLCAnLWltYWUnLCAnPGluZmlsZS5tYWU+JywgJy1vbWFlJywgJzxvdXRmaWxlLm1hZT4n

> <r_lp_tautomer_probability>
1

> <r_epik_Ionization_Penalty>
  0.0042

> <r_epik_Ionization_Penalty_Charging>
  0.0000

> <r_epik_Ionization_Penalty_Neutral>
  0.0042

> <r_epik_State_Penalty>
 -0.0000

> <r_epik_Charging_Adjusted_Penalty>
0

> <i_epik_Tot_Q>
0

> <i_epik_Tot_abs_Q>
0

> <s_epik_Chemistry_Notes>
This compound has an ester and may undergo hydrolysis at high or low pH.

> <s_lp_Force_Field>
OPLS3e

> <r_lp_Energy>
27.070445

> <b_lp_Chiralities_Consistent>
1

> <s_lp_Variant>
sdf/inactives_sanitized.sdf:183-1

$$$$
sdf/inactives_sanitized.sdf:184
                    3D
 Schrodinger Suite 2020-1.
 73 78  0  0  1  0            999 V2000
   -2.1956   -2.6062    1.1845 C   0  0  0  0  0  0
   -0.7297   -2.1356    1.1985 C   0  0  0  0  0  0
   -0.4248   -0.9363    0.2649 C   0  0  2  0  0  0
    1.0212   -0.6551    0.2467 N   0  0  0  0  0  0
    1.6703    0.1706   -0.5980 C   0  0  0  0  0  0
    1.0964    0.8180   -1.4762 O   0  0  0  0  0  0
    3.1833    0.3604   -0.3422 C   0  0  2  0  0  0
    3.5067    1.7530    0.2101 C   0  0  0  0  0  0
    3.8721    2.5845   -1.0092 C   0  0  2  0  0  0
    4.4421    1.6030   -2.0340 C   0  0  0  0  0  0
    3.9704    0.2825   -1.5941 N   0  0  0  0  0  0
    4.2502   -0.8942   -2.2224 C   0  0  0  0  0  0
    3.8288   -1.9621   -1.7684 O   0  0  0  0  0  0
    5.0783   -0.9167   -3.5473 C   0  0  0  0  0  0
    5.0095   -2.2359   -4.3153 C   0  0  0  0  0  0
    4.1589   -1.0785   -4.7576 C   0  0  0  0  0  0
    6.3608   -0.0827   -3.6370 C   0  0  0  0  0  0
    6.5055    0.9273   -4.5957 C   0  0  0  0  0  0
    7.6740    1.6817   -4.6445 C   0  0  0  0  0  0
    8.6964    1.4346   -3.7312 C   0  0  0  0  0  0
   10.1360    2.3852   -3.7812 Cl  0  0  0  0  0  0
    8.5627    0.4305   -2.7747 C   0  0  0  0  0  0
    7.3968   -0.3287   -2.7300 C   0  0  0  0  0  0
    5.0719    3.9947   -0.5916 S   0  0  0  0  0  0
    4.3396    5.0382    0.1341 O   0  0  0  0  0  0
    6.2763    3.4048    0.0052 O   0  0  0  0  0  0
    5.5391    4.6801   -2.1923 C   0  0  0  0  0  0
    6.8636    4.5349   -2.6251 C   0  0  0  0  0  0
    7.2684    5.0485   -3.8560 C   0  0  0  0  0  0
    6.3515    5.7064   -4.6718 C   0  0  0  0  0  0
    5.0307    5.8538   -4.2533 C   0  0  0  0  0  0
    4.6164    5.3473   -3.0193 C   0  0  0  0  0  0
    2.9613    5.5748   -2.5695 Cl  0  0  0  0  0  0
   -1.1518    0.3287    0.7343 C   0  0  0  0  0  0
   -0.8919    0.8332    1.8298 O   0  0  0  0  0  0
   -2.1553    0.9292   -0.1433 C   0  0  0  0  0  0
   -2.7521    2.0844    0.2908 O   0  0  0  0  0  0
   -3.6084    2.4080   -0.7153 C   0  0  0  0  0  0
   -4.4770    3.4998   -0.8121 C   0  0  0  0  0  0
   -5.2447    3.5783   -1.9774 C   0  0  0  0  0  0
   -5.1430    2.6127   -2.9856 C   0  0  0  0  0  0
   -4.2687    1.5251   -2.8733 C   0  0  0  0  0  0
   -3.4881    1.4271   -1.7113 C   0  0  0  0  0  0
   -2.5631    0.4993   -1.3233 N   0  0  0  0  0  0
   -2.3262   -3.4861    1.8149 H   0  0  0  0  0  0
   -2.5148   -2.8718    0.1763 H   0  0  0  0  0  0
   -2.8710   -1.8355    1.5569 H   0  0  0  0  0  0
   -0.4293   -1.9090    2.2234 H   0  0  0  0  0  0
   -0.1029   -2.9783    0.9017 H   0  0  0  0  0  0
   -0.7107   -1.2339   -0.7459 H   0  0  0  0  0  0
    1.5560   -1.1271    0.9615 H   0  0  0  0  0  0
    3.4837   -0.4344    0.3435 H   0  0  0  0  0  0
    2.7239    2.1900    0.8334 H   0  0  0  0  0  0
    4.3705    1.6571    0.8696 H   0  0  0  0  0  0
    2.9780    3.0649   -1.4046 H   0  0  0  0  0  0
    4.1421    1.8754   -3.0465 H   0  0  0  0  0  0
    5.5275    1.6407   -1.9476 H   0  0  0  0  0  0
    5.8675   -2.5189   -4.9259 H   0  0  0  0  0  0
    4.5200   -3.1134   -3.8911 H   0  0  0  0  0  0
    4.4060   -0.5975   -5.7035 H   0  0  0  0  0  0
    3.0781   -1.1373   -4.6165 H   0  0  0  0  0  0
    5.7150    1.1474   -5.2966 H   0  0  0  0  0  0
    7.7792    2.4629   -5.3830 H   0  0  0  0  0  0
    9.3570    0.2404   -2.0678 H   0  0  0  0  0  0
    7.2957   -1.1047   -1.9852 H   0  0  0  0  0  0
    7.5928    4.0239   -2.0140 H   0  0  0  0  0  0
    8.2926    4.9316   -4.1788 H   0  0  0  0  0  0
    6.6636    6.1024   -5.6270 H   0  0  0  0  0  0
    4.3257    6.3666   -4.8915 H   0  0  0  0  0  0
   -4.5490    4.2420   -0.0307 H   0  0  0  0  0  0
   -5.9311    4.4027   -2.1039 H   0  0  0  0  0  0
   -5.7534    2.7100   -3.8716 H   0  0  0  0  0  0
   -4.1982    0.7867   -3.6585 H   0  0  0  0  0  0
  1  2  1  0  0  0
  1 45  1  0  0  0
  1 46  1  0  0  0
  1 47  1  0  0  0
  2  3  1  0  0  0
  2 48  1  0  0  0
  2 49  1  0  0  0
  3  4  1  0  0  0
  3 34  1  0  0  0
  3 50  1  0  0  0
  4  5  1  0  0  0
  4 51  1  0  0  0
  5  6  2  0  0  0
  5  7  1  0  0  0
  7  8  1  0  0  0
  7 11  1  0  0  0
  7 52  1  0  0  0
  8  9  1  0  0  0
  8 53  1  0  0  0
  8 54  1  0  0  0
  9 10  1  0  0  0
  9 24  1  0  0  0
  9 55  1  0  0  0
 10 11  1  0  0  0
 10 56  1  0  0  0
 10 57  1  0  0  0
 11 12  1  0  0  0
 12 13  2  0  0  0
 12 14  1  0  0  0
 14 15  1  0  0  0
 14 16  1  0  0  0
 14 17  1  0  0  0
 15 16  1  0  0  0
 15 58  1  0  0  0
 15 59  1  0  0  0
 16 60  1  0  0  0
 16 61  1  0  0  0
 17 18  2  0  0  0
 17 23  1  0  0  0
 18 19  1  0  0  0
 18 62  1  0  0  0
 19 20  2  0  0  0
 19 63  1  0  0  0
 20 21  1  0  0  0
 20 22  1  0  0  0
 22 23  2  0  0  0
 22 64  1  0  0  0
 23 65  1  0  0  0
 24 25  2  0  0  0
 24 26  2  0  0  0
 24 27  1  0  0  0
 27 28  2  0  0  0
 27 32  1  0  0  0
 28 29  1  0  0  0
 28 66  1  0  0  0
 29 30  2  0  0  0
 29 67  1  0  0  0
 30 31  1  0  0  0
 30 68  1  0  0  0
 31 32  2  0  0  0
 31 69  1  0  0  0
 32 33  1  0  0  0
 34 35  2  0  0  0
 34 36  1  0  0  0
 36 37  1  0  0  0
 36 44  2  0  0  0
 37 38  1  0  0  0
 38 39  2  0  0  0
 38 43  1  0  0  0
 39 40  1  0  0  0
 39 70  1  0  0  0
 40 41  2  0  0  0
 40 71  1  0  0  0
 41 42  1  0  0  0
 41 72  1  0  0  0
 42 43  2  0  0  0
 42 73  1  0  0  0
 43 44  1  0  0  0
M  END
> <chembl_id>
CHEMBL3649373

> <chembl_pref_name>
None

> <i_m_ct_stereo_status>
1

> <s_m_source_file>
sdf/inactives_sanitized.sdf

> <i_m_source_file_index>
184

> <i_lp_mmshare_version>
49012

> <i_f3d_flags>
0

> <s_epik_input>
W2NIXTFbY0hdW2NIXVtjSF1jKGMxMiluYyhvMilDKD1PKVtDQEhdKFtDSDJdW0NIM10pW05IXUMoPU8pW0NAQEhdM1tDSDJdW0NAQEhdKFMoPU8pKD1PKWM0W2NIXVtjSF1bY0hdW2NIXWM0Q2wpW0NIMl1OM0MoPU8pQzUoW0NIMl1bQ0gyXTUpYzZbY0hdW2NIXWMoQ2wpW2NIXVtjSF02

> <s_epik_cmdline>
J2VwaWtfcHl0aG9uJywgJy1waHQnLCAnMC41JywgJy1waCcsICc3LjUnLCAnLW50JywgJy1tYScsICcyMDAnLCAnLWltYWUnLCAnPGluZmlsZS5tYWU+JywgJy1vbWFlJywgJzxvdXRmaWxlLm1hZT4n

> <r_lp_tautomer_probability>
1

> <r_epik_Ionization_Penalty>
  0.0000

> <r_epik_Ionization_Penalty_Charging>
  0.0000

> <r_epik_Ionization_Penalty_Neutral>
  0.0000

> <r_epik_State_Penalty>
 -0.0000

> <r_epik_Charging_Adjusted_Penalty>
0

> <i_epik_Tot_Q>
0

> <i_epik_Tot_abs_Q>
0

> <s_lp_Force_Field>
OPLS3e

> <r_lp_Energy>
62.687706

> <b_lp_Chiralities_Consistent>
1

> <s_lp_Variant>
sdf/inactives_sanitized.sdf:184-1

$$$$
sdf/inactives_sanitized.sdf:185
                    3D
 Schrodinger Suite 2020-1.
 40 41  0  0  1  0            999 V2000
   -2.7883    0.2569   -0.5575 N   0  0  0  0  0  0
   -2.2347   -0.9627   -0.2950 C   0  0  0  0  0  0
   -0.8441   -1.0950   -0.0575 C   0  0  0  0  0  0
   -0.0600    0.0806   -0.1010 C   0  0  0  0  0  0
   -0.6190    1.2960   -0.3599 N   0  0  0  0  0  0
   -1.9531    1.3204   -0.5786 C   0  0  0  0  0  0
   -2.5474    2.6158   -0.8588 C   0  0  0  0  0  0
   -3.0208    3.6481   -1.0821 N   0  0  0  0  0  0
   -3.1197   -2.0416   -0.2157 N   0  0  0  0  0  0
   -3.3072   -2.6816    1.0994 C   0  0  0  0  0  0
   -3.9805   -4.0666    0.9898 C   0  0  0  0  0  0
   -5.2282   -3.9455    0.3214 O   0  0  0  0  0  0
   -5.0846   -3.4043   -0.9844 C   0  0  0  0  0  0
   -4.4243   -2.0110   -0.9059 C   0  0  0  0  0  0
    1.3319    0.0163    0.1240 N   0  0  0  0  0  0
    2.2139    1.1845    0.0922 C   0  0  2  0  0  0
    2.5520    1.5989   -1.3527 C   0  0  0  0  0  0
    3.4979    0.9472    0.9173 C   0  0  0  0  0  0
   -0.2556   -2.3495    0.1753 N   0  0  0  0  0  0
    3.2496    0.7380    2.4205 C   0  0  0  0  0  0
   -2.3499   -2.8122    1.6023 H   0  0  0  0  0  0
   -3.8942   -2.0221    1.7408 H   0  0  0  0  0  0
   -3.3348   -4.7783    0.4717 H   0  0  0  0  0  0
   -4.1574   -4.4740    1.9852 H   0  0  0  0  0  0
   -4.5056   -4.0790   -1.6179 H   0  0  0  0  0  0
   -6.0727   -3.3228   -1.4374 H   0  0  0  0  0  0
   -5.0894   -1.2981   -0.4154 H   0  0  0  0  0  0
   -4.2731   -1.6474   -1.9233 H   0  0  0  0  0  0
    1.7474   -0.8787    0.3372 H   0  0  0  0  0  0
    1.6845    2.0179    0.5575 H   0  0  0  0  0  0
    3.1790    2.4908   -1.3708 H   0  0  0  0  0  0
    1.6534    1.8288   -1.9261 H   0  0  0  0  0  0
    3.0853    0.8077   -1.8812 H   0  0  0  0  0  0
    4.0415    0.0890    0.5186 H   0  0  0  0  0  0
    4.1676    1.8001    0.7965 H   0  0  0  0  0  0
    0.7437   -2.4167    0.3042 H   0  0  0  0  0  0
   -0.8347   -3.1772    0.1600 H   0  0  0  0  0  0
    4.1911    0.6116    2.9557 H   0  0  0  0  0  0
    2.6447   -0.1498    2.6074 H   0  0  0  0  0  0
    2.7331    1.5930    2.8580 H   0  0  0  0  0  0
  1  6  2  0  0  0
  1  2  1  0  0  0
  2  3  2  0  0  0
  2  9  1  0  0  0
  3  4  1  0  0  0
  3 19  1  0  0  0
  4  5  2  0  0  0
  4 15  1  0  0  0
  5  6  1  0  0  0
  6  7  1  0  0  0
  7  8  3  0  0  0
  9 10  1  0  0  0
  9 14  1  0  0  0
 10 11  1  0  0  0
 10 21  1  0  0  0
 10 22  1  0  0  0
 11 12  1  0  0  0
 11 23  1  0  0  0
 11 24  1  0  0  0
 12 13  1  0  0  0
 13 14  1  0  0  0
 13 25  1  0  0  0
 13 26  1  0  0  0
 14 27  1  0  0  0
 14 28  1  0  0  0
 15 16  1  0  0  0
 15 29  1  0  0  0
 16 17  1  0  0  0
 16 18  1  0  0  0
 16 30  1  0  0  0
 17 31  1  0  0  0
 17 32  1  0  0  0
 17 33  1  0  0  0
 18 20  1  0  0  0
 18 34  1  0  0  0
 18 35  1  0  0  0
 19 36  1  0  0  0
 19 37  1  0  0  0
 20 38  1  0  0  0
 20 39  1  0  0  0
 20 40  1  0  0  0
M  END
> <chembl_id>
CHEMBL470897

> <chembl_pref_name>
None

> <s_m_source_file>
sdf/inactives_sanitized.sdf

> <i_m_source_file_index>
185

> <i_lp_mmshare_version>
49012

> <i_m_ct_stereo_status>
1

> <i_f3d_flags>
0

> <s_epik_input>
W0NIM11bQ0gyXVtDQEBIXShbQ0gzXSlbTkhdYyhjMVtOSDJdKW5jKEMjTiluYzFOMltDSDJdW0NIMl1PW0NIMl1bQ0gyXTI=

> <s_epik_cmdline>
J2VwaWtfcHl0aG9uJywgJy1waHQnLCAnMC41JywgJy1waCcsICc3LjUnLCAnLW50JywgJy1tYScsICcyMDAnLCAnLWltYWUnLCAnPGluZmlsZS5tYWU+JywgJy1vbWFlJywgJzxvdXRmaWxlLm1hZT4n

> <r_lp_tautomer_probability>
1

> <r_epik_Ionization_Penalty>
  0.0000

> <r_epik_Ionization_Penalty_Charging>
  0.0000

> <r_epik_Ionization_Penalty_Neutral>
  0.0000

> <r_epik_State_Penalty>
 -0.0000

> <r_epik_Charging_Adjusted_Penalty>
0

> <i_epik_Tot_Q>
0

> <i_epik_Tot_abs_Q>
0

> <s_lp_Force_Field>
OPLS3e

> <r_lp_Energy>
38.347552

> <b_lp_Chiralities_Consistent>
1

> <s_lp_Variant>
sdf/inactives_sanitized.sdf:185-1

$$$$
sdf/inactives_sanitized.sdf:186
                    3D
 Schrodinger Suite 2020-1.
 48 48  0  0  1  0            999 V2000
   -3.5193    1.2146   -1.6407 C   0  0  0  0  0  0
   -4.2519    0.1860   -0.7486 C   0  0  0  0  0  0
   -4.2224    0.5069    0.7658 C   0  0  0  0  0  0
   -2.8203    0.5709    1.4163 C   0  0  0  0  0  0
   -2.0511   -0.7738    1.4431 C   0  0  0  0  0  0
   -0.5104   -0.6714    1.3064 C   0  0  0  0  0  0
    0.0393   -0.0149    0.0004 C   0  0  0  0  0  0
   -0.4849   -0.6799   -1.3059 C   0  0  0  0  0  0
   -0.3471    0.2044   -2.5669 C   0  0  0  0  0  0
   -1.1876   -0.2577   -3.7765 C   0  0  0  0  0  0
   -2.7191   -0.3974   -3.5753 C   0  0  0  0  0  0
   -3.4947    0.8761   -3.1503 C   0  0  0  0  0  0
    1.5788    0.0340    0.0167 C   0  0  0  0  0  0
    2.1414    1.4638   -0.0210 C   0  0  0  0  0  0
    2.2481   -1.0577    0.0540 N   0  0  0  0  0  0
    3.5971   -0.9528    0.0403 N   0  0  0  0  0  0
    4.4647   -2.0066    0.0742 C   0  0  0  0  0  0
    5.7648   -1.6420    0.0444 N   0  0  0  0  0  0
    4.0793   -3.6301    0.1445 S   0  0  0  0  0  0
   -4.0055    2.1830   -1.5158 H   0  0  0  0  0  0
   -2.5052    1.3627   -1.2842 H   0  0  0  0  0  0
   -5.2932    0.1288   -1.0687 H   0  0  0  0  0  0
   -3.8524   -0.8127   -0.9110 H   0  0  0  0  0  0
   -4.7267    1.4605    0.9290 H   0  0  0  0  0  0
   -4.8235   -0.2337    1.2955 H   0  0  0  0  0  0
   -2.2438    1.3537    0.9298 H   0  0  0  0  0  0
   -2.9284    0.9221    2.4433 H   0  0  0  0  0  0
   -2.2784   -1.2736    2.3857 H   0  0  0  0  0  0
   -2.4332   -1.4611    0.6914 H   0  0  0  0  0  0
   -0.1322   -0.1208    2.1701 H   0  0  0  0  0  0
   -0.1044   -1.6799    1.4046 H   0  0  0  0  0  0
   -0.3311    1.0096   -0.0025 H   0  0  0  0  0  0
   -0.0136   -1.6500   -1.4739 H   0  0  0  0  0  0
   -1.5372   -0.9063   -1.1812 H   0  0  0  0  0  0
   -0.6003    1.2390   -2.3387 H   0  0  0  0  0  0
    0.7030    0.2339   -2.8609 H   0  0  0  0  0  0
   -1.0072    0.4318   -4.6025 H   0  0  0  0  0  0
   -0.7994   -1.2194   -4.1152 H   0  0  0  0  0  0
   -3.1289   -0.7176   -4.5342 H   0  0  0  0  0  0
   -2.9398   -1.2270   -2.9057 H   0  0  0  0  0  0
   -3.0994    1.7307   -3.7012 H   0  0  0  0  0  0
   -4.5281    0.7766   -3.4854 H   0  0  0  0  0  0
    1.7876    2.0363    0.8367 H   0  0  0  0  0  0
    1.8097    1.9815   -0.9216 H   0  0  0  0  0  0
    3.2295    1.5147   -0.0080 H   0  0  0  0  0  0
    3.9545   -0.0093    0.0023 H   0  0  0  0  0  0
    6.0153   -0.6651   -0.0003 H   0  0  0  0  0  0
    6.4819   -2.3530    0.0631 H   0  0  0  0  0  0
  1  2  1  0  0  0
  1 12  1  0  0  0
  1 20  1  0  0  0
  1 21  1  0  0  0
  2  3  1  0  0  0
  2 22  1  0  0  0
  2 23  1  0  0  0
  3  4  1  0  0  0
  3 24  1  0  0  0
  3 25  1  0  0  0
  4  5  1  0  0  0
  4 26  1  0  0  0
  4 27  1  0  0  0
  5  6  1  0  0  0
  5 28  1  0  0  0
  5 29  1  0  0  0
  6  7  1  0  0  0
  6 30  1  0  0  0
  6 31  1  0  0  0
  7  8  1  0  0  0
  7 13  1  0  0  0
  7 32  1  0  0  0
  8  9  1  0  0  0
  8 33  1  0  0  0
  8 34  1  0  0  0
  9 10  1  0  0  0
  9 35  1  0  0  0
  9 36  1  0  0  0
 10 11  1  0  0  0
 10 37  1  0  0  0
 10 38  1  0  0  0
 11 12  1  0  0  0
 11 39  1  0  0  0
 11 40  1  0  0  0
 12 41  1  0  0  0
 12 42  1  0  0  0
 13 14  1  0  0  0
 13 15  2  0  0  0
 14 43  1  0  0  0
 14 44  1  0  0  0
 14 45  1  0  0  0
 15 16  1  0  0  0
 16 17  1  0  0  0
 16 46  1  0  0  0
 17 18  1  0  0  0
 17 19  2  0  0  0
 18 47  1  0  0  0
 18 48  1  0  0  0
M  END
> <chembl_id>
CHEMBL2316602

> <chembl_pref_name>
None

> <s_m_source_file>
sdf/inactives_sanitized.sdf

> <i_m_source_file_index>
186

> <i_lp_mmshare_version>
49012

> <i_m_ct_stereo_status>
1

> <i_f3d_flags>
0

> <s_epik_input>
W0NIMl0xW0NIMl1bQ0gyXVtDSDJdW0NIMl1bQ0gyXVtDSDJdW0NIMl1bQ0gyXVtDSDJdW0NIMl1bQ0hdMS9DKFtDSDNdKT1OL1tOSF1DKD1TKVtOSDJd

> <s_epik_cmdline>
J2VwaWtfcHl0aG9uJywgJy1waHQnLCAnMC41JywgJy1waCcsICc3LjUnLCAnLW50JywgJy1tYScsICcyMDAnLCAnLWltYWUnLCAnPGluZmlsZS5tYWU+JywgJy1vbWFlJywgJzxvdXRmaWxlLm1hZT4n

> <r_lp_tautomer_probability>
1

> <r_epik_Ionization_Penalty>
  0.0003

> <r_epik_Ionization_Penalty_Charging>
  0.0000

> <r_epik_Ionization_Penalty_Neutral>
  0.0003

> <r_epik_State_Penalty>
 -0.0000

> <r_epik_Charging_Adjusted_Penalty>
0

> <i_epik_Tot_Q>
0

> <i_epik_Tot_abs_Q>
0

> <s_epik_Chemistry_Notes>
This compound has an imine and may undergo hydrolysis.

> <s_lp_Force_Field>
OPLS3e

> <r_lp_Energy>
32.433574

> <b_lp_Chiralities_Consistent>
1

> <s_lp_Variant>
sdf/inactives_sanitized.sdf:186-1

$$$$
sdf/inactives_sanitized.sdf:187
                    3D
 Schrodinger Suite 2020-1.
 50 53  0  0  1  0            999 V2000
   -5.1317   -0.9832   -0.5931 N   0  0  0  0  0  0
   -4.4706    0.0311    0.0336 C   0  0  0  0  0  0
   -5.1296    1.1032    0.6580 C   0  0  0  0  0  0
   -6.4873   -0.9809   -0.6438 C   0  0  0  0  0  0
   -7.5136    1.9338    1.0691 N   0  0  0  0  0  0
   -8.7123    1.3760    0.6821 C   0  0  0  0  0  0
   -8.5938    0.2580    0.0141 N   0  0  0  0  0  0
   -7.2389    0.0506   -0.0558 C   0  0  0  0  0  0
   -6.5280    1.0903    0.5971 C   0  0  0  0  0  0
   -7.0862   -2.1088   -1.3417 C   0  0  0  0  0  0
   -7.5629   -3.0054   -1.8966 N   0  0  0  0  0  0
   -2.9790   -0.0662    0.0282 C   0  0  0  0  0  0
   -2.1861    1.0858   -0.0523 C   0  0  0  0  0  0
   -0.7857    1.0206   -0.0602 C   0  0  0  0  0  0
   -0.1494   -0.2305    0.0139 C   0  0  0  0  0  0
   -0.9391   -1.3882    0.0965 C   0  0  0  0  0  0
   -2.3286   -1.3041    0.1024 C   0  0  0  0  0  0
    0.0440    2.3065   -0.1522 C   0  0  0  0  0  0
    0.8024    2.2749   -1.2486 F   0  0  0  0  0  0
   -0.7103    3.4063   -0.2065 F   0  0  0  0  0  0
    0.8390    2.4078    0.9136 F   0  0  0  0  0  0
   -7.3309    3.1671    1.8145 C   0  0  0  0  0  0
    1.2346   -0.2515    0.0017 O   0  0  0  0  0  0
    1.9258   -1.4970    0.0306 C   0  0  0  0  0  0
    3.4339   -1.2179   -0.0617 C   0  0  0  0  0  0
    4.2720   -2.4870   -0.0560 C   0  0  0  0  0  0
    4.8542   -2.9769   -1.2300 C   0  0  0  0  0  0
    5.6054   -4.1520   -1.1619 C   0  0  0  0  0  0
    5.7569   -4.8036    0.0639 C   0  0  0  0  0  0
    5.1429   -4.2516    1.1925 C   0  0  0  0  0  0
    4.4063   -3.1106    1.1453 N   0  0  0  0  0  0
    5.2654   -4.9016    2.5575 C   0  0  0  0  0  0
   -4.5916    1.8921    1.1627 H   0  0  0  0  0  0
   -9.6410    1.8658    0.9375 H   0  0  0  0  0  0
   -2.6714    2.0483   -0.1215 H   0  0  0  0  0  0
   -0.4930   -2.3690    0.1584 H   0  0  0  0  0  0
   -2.9015   -2.2177    0.1707 H   0  0  0  0  0  0
   -6.7793    2.9552    2.7310 H   0  0  0  0  0  0
   -8.2977    3.6043    2.0676 H   0  0  0  0  0  0
   -6.7626    3.8729    1.2082 H   0  0  0  0  0  0
    1.6974   -2.0276    0.9569 H   0  0  0  0  0  0
    1.6154   -2.1181   -0.8119 H   0  0  0  0  0  0
    3.6450   -0.6459   -0.9667 H   0  0  0  0  0  0
    3.7479   -0.5792    0.7659 H   0  0  0  0  0  0
    4.7267   -2.4639   -2.1722 H   0  0  0  0  0  0
    6.0657   -4.5545   -2.0520 H   0  0  0  0  0  0
    6.3360   -5.7130    0.1317 H   0  0  0  0  0  0
    5.8407   -5.8271    2.5124 H   0  0  0  0  0  0
    4.2790   -5.1382    2.9581 H   0  0  0  0  0  0
    5.7647   -4.2280    3.2549 H   0  0  0  0  0  0
  1  4  2  0  0  0
  1  2  1  0  0  0
  2 12  1  0  0  0
  2  3  2  0  0  0
  3  9  1  0  0  0
  3 33  1  0  0  0
  4  8  1  0  0  0
  4 10  1  0  0  0
  5  6  1  0  0  0
  5  9  1  0  0  0
  5 22  1  0  0  0
  6  7  2  0  0  0
  6 34  1  0  0  0
  7  8  1  0  0  0
  8  9  2  0  0  0
 10 11  3  0  0  0
 12 17  1  0  0  0
 12 13  2  0  0  0
 13 14  1  0  0  0
 13 35  1  0  0  0
 14 18  1  0  0  0
 14 15  2  0  0  0
 15 16  1  0  0  0
 15 23  1  0  0  0
 16 17  2  0  0  0
 16 36  1  0  0  0
 17 37  1  0  0  0
 18 19  1  0  0  0
 18 20  1  0  0  0
 18 21  1  0  0  0
 22 38  1  0  0  0
 22 39  1  0  0  0
 22 40  1  0  0  0
 23 24  1  0  0  0
 24 25  1  0  0  0
 24 41  1  0  0  0
 24 42  1  0  0  0
 25 26  1  0  0  0
 25 43  1  0  0  0
 25 44  1  0  0  0
 26 27  2  0  0  0
 26 31  1  0  0  0
 27 28  1  0  0  0
 27 45  1  0  0  0
 28 29  2  0  0  0
 28 46  1  0  0  0
 29 30  1  0  0  0
 29 47  1  0  0  0
 30 31  2  0  0  0
 30 32  1  0  0  0
 32 48  1  0  0  0
 32 49  1  0  0  0
 32 50  1  0  0  0
M  END
> <chembl_id>
CHEMBL1208978

> <chembl_pref_name>
None

> <s_m_source_file>
sdf/inactives_sanitized.sdf

> <i_m_source_file_index>
187

> <i_lp_mmshare_version>
49012

> <i_m_ct_stereo_status>
1

> <i_f3d_flags>
0

> <s_epik_input>
bjFbY0hdbihbQ0gzXSljKGMxMilbY0hdYyhuYzJDI04pLWMzW2NIXWMoQyhGKShGKUYpYyhbY0hdW2NIXTMpT1tDSDJdW0NIMl1jNFtjSF1bY0hdW2NIXWMobjQpW0NIM10=

> <s_epik_cmdline>
J2VwaWtfcHl0aG9uJywgJy1waHQnLCAnMC41JywgJy1waCcsICc3LjUnLCAnLW50JywgJy1tYScsICcyMDAnLCAnLWltYWUnLCAnPGluZmlsZS5tYWU+JywgJy1vbWFlJywgJzxvdXRmaWxlLm1hZT4n

> <r_lp_tautomer_probability>
1

> <r_epik_Ionization_Penalty>
  0.0360

> <r_epik_Ionization_Penalty_Charging>
  0.0000

> <r_epik_Ionization_Penalty_Neutral>
  0.0360

> <r_epik_State_Penalty>
  0.0301

> <r_epik_Charging_Adjusted_Penalty>
0.0300798218784671

> <i_epik_Tot_Q>
0

> <i_epik_Tot_abs_Q>
0

> <s_lp_Force_Field>
OPLS3e

> <r_lp_Energy>
39.279938

> <b_lp_Chiralities_Consistent>
1

> <s_lp_Variant>
sdf/inactives_sanitized.sdf:187-1

$$$$
sdf/inactives_sanitized.sdf:188
                    3D
 Schrodinger Suite 2020-1.
 33 34  0  0  1  0            999 V2000
   -2.8264    0.0297    0.4118 N   0  0  0  0  0  0
   -2.2083   -1.1447    0.0991 C   0  0  0  0  0  0
   -0.8173   -1.2248   -0.0599 C   0  0  0  0  0  0
   -0.0832   -0.0431    0.0991 C   0  0  0  0  0  0
   -0.6741    1.1456    0.4002 N   0  0  0  0  0  0
   -2.0234    1.1165    0.5429 C   0  0  0  0  0  0
   -2.6732    2.3734    0.8715 C   0  0  0  0  0  0
   -3.1910    3.3748    1.1337 N   0  0  0  0  0  0
   -3.0938   -2.3336   -0.0396 C   0  0  0  0  0  0
    1.4309   -0.0253   -0.0555 C   0  0  0  0  0  0
    2.1726    0.2357    1.2693 C   0  0  0  0  0  0
    3.6986    0.2343    1.1082 C   0  0  0  0  0  0
   -3.1728   -3.1051   -1.2250 C   0  0  0  0  0  0
   -4.0052   -4.2354   -1.2475 C   0  0  0  0  0  0
   -4.7491   -4.6042   -0.1300 C   0  0  0  0  0  0
   -4.6790   -3.8424    1.0301 C   0  0  0  0  0  0
   -3.8587   -2.7187    1.0713 C   0  0  0  0  0  0
   -2.4390   -2.7127   -2.5187 C   0  0  0  0  0  0
   -3.0186   -3.2415   -3.5987 F   0  0  0  0  0  0
   -2.4047   -1.3917   -2.7000 F   0  0  0  0  0  0
   -1.1896   -3.1735   -2.4677 F   0  0  0  0  0  0
   -0.3304   -2.1617   -0.2886 H   0  0  0  0  0  0
    1.6951    0.7368   -0.7906 H   0  0  0  0  0  0
    1.7626   -0.9742   -0.4801 H   0  0  0  0  0  0
    1.8619    1.1948    1.6862 H   0  0  0  0  0  0
    1.8910   -0.5221    2.0017 H   0  0  0  0  0  0
    4.1905    0.4230    2.0628 H   0  0  0  0  0  0
    4.0233    1.0072    0.4109 H   0  0  0  0  0  0
    4.0570   -0.7260    0.7355 H   0  0  0  0  0  0
   -4.0878   -4.8401   -2.1389 H   0  0  0  0  0  0
   -5.3840   -5.4773   -0.1665 H   0  0  0  0  0  0
   -5.2567   -4.1234    1.8984 H   0  0  0  0  0  0
   -3.8103   -2.1448    1.9858 H   0  0  0  0  0  0
  1  6  2  0  0  0
  1  2  1  0  0  0
  2  3  2  0  0  0
  2  9  1  0  0  0
  3  4  1  0  0  0
  3 22  1  0  0  0
  4  5  2  0  0  0
  4 10  1  0  0  0
  5  6  1  0  0  0
  6  7  1  0  0  0
  7  8  3  0  0  0
  9 13  2  0  0  0
  9 17  1  0  0  0
 10 11  1  0  0  0
 10 23  1  0  0  0
 10 24  1  0  0  0
 11 12  1  0  0  0
 11 25  1  0  0  0
 11 26  1  0  0  0
 12 27  1  0  0  0
 12 28  1  0  0  0
 12 29  1  0  0  0
 13 14  1  0  0  0
 13 18  1  0  0  0
 14 15  2  0  0  0
 14 30  1  0  0  0
 15 16  1  0  0  0
 15 31  1  0  0  0
 16 17  2  0  0  0
 16 32  1  0  0  0
 17 33  1  0  0  0
 18 19  1  0  0  0
 18 20  1  0  0  0
 18 21  1  0  0  0
M  END
> <chembl_id>
CHEMBL1079098

> <chembl_pref_name>
None

> <s_m_source_file>
sdf/inactives_sanitized.sdf

> <i_m_source_file_index>
188

> <i_lp_mmshare_version>
49012

> <i_m_ct_stereo_status>
1

> <i_f3d_flags>
0

> <s_epik_input>
W0NIM11bQ0gyXVtDSDJdYyhbY0hdMSluYyhDI04pbmMxLWMyYyhDKEYpKEYpRilbY0hdW2NIXVtjSF1bY0hdMg==

> <s_epik_cmdline>
J2VwaWtfcHl0aG9uJywgJy1waHQnLCAnMC41JywgJy1waCcsICc3LjUnLCAnLW50JywgJy1tYScsICcyMDAnLCAnLWltYWUnLCAnPGluZmlsZS5tYWU+JywgJy1vbWFlJywgJzxvdXRmaWxlLm1hZT4n

> <r_lp_tautomer_probability>
1

> <r_epik_Ionization_Penalty>
  0.0000

> <r_epik_Ionization_Penalty_Charging>
  0.0000

> <r_epik_Ionization_Penalty_Neutral>
  0.0000

> <r_epik_State_Penalty>
 -0.0000

> <r_epik_Charging_Adjusted_Penalty>
0

> <i_epik_Tot_Q>
0

> <i_epik_Tot_abs_Q>
0

> <s_lp_Force_Field>
OPLS3e

> <r_lp_Energy>
31.486115

> <b_lp_Chiralities_Consistent>
1

> <s_lp_Variant>
sdf/inactives_sanitized.sdf:188-1

$$$$
sdf/inactives_sanitized.sdf:189
                    3D
 Schrodinger Suite 2020-1.
 57 60  0  0  1  0            999 V2000
   -0.6267    1.1223    0.2740 N   0  0  0  0  0  0
   -0.0191   -0.0903    0.1421 C   0  0  0  0  0  0
   -0.7313   -1.2938    0.0149 C   0  0  0  0  0  0
   -1.9801    1.2043    0.2927 C   0  0  0  0  0  0
   -3.1567   -2.1107   -0.0568 N   0  0  0  0  0  0
   -4.3239   -1.3825    0.0282 C   0  0  0  0  0  0
   -4.1471   -0.0944    0.1646 N   0  0  0  0  0  0
   -2.7836    0.0578    0.1731 C   0  0  0  0  0  0
   -2.1277   -1.1925    0.0345 C   0  0  0  0  0  0
   -2.5194    2.5474    0.4444 C   0  0  0  0  0  0
   -2.9487    3.6154    0.5653 N   0  0  0  0  0  0
    1.4746   -0.0677    0.1250 C   0  0  0  0  0  0
    2.1814    0.9833   -0.4760 C   0  0  0  0  0  0
    3.5826    1.0130   -0.4986 C   0  0  0  0  0  0
    4.3078   -0.0331    0.0971 C   0  0  0  0  0  0
    3.6043   -1.0890    0.6981 C   0  0  0  0  0  0
    2.2120   -1.1028    0.7097 C   0  0  0  0  0  0
    4.3168    2.1781   -1.1722 C   0  0  0  0  0  0
    5.0922    1.7149   -2.1536 F   0  0  0  0  0  0
    3.4849    3.0796   -1.6983 F   0  0  0  0  0  0
    5.0862    2.8020   -0.2791 F   0  0  0  0  0  0
    5.6897    0.0381    0.0582 O   0  0  0  0  0  0
    6.4714   -0.9997    0.6415 C   0  0  0  0  0  0
    7.9519   -0.6405    0.4859 C   0  0  0  0  0  0
   -3.0476   -3.5607   -0.1827 C   0  0  0  0  0  0
   -2.4594   -4.1900    1.0968 C   0  0  0  0  0  0
   -3.3246   -3.9885    2.3643 C   0  0  0  0  0  0
   -2.5780   -4.1991    3.6074 N   0  0  0  0  0  0
   -3.4995   -4.4368    4.7271 C   0  0  0  0  0  0
   -2.7434   -4.5890    6.0639 C   0  0  0  0  0  0
   -1.9168   -3.4525    6.2877 O   0  0  0  0  0  0
   -0.9523   -3.2738    5.2570 C   0  0  0  0  0  0
   -1.6574   -3.0872    3.8963 C   0  0  0  0  0  0
   -0.2317   -2.2441   -0.1015 H   0  0  0  0  0  0
   -5.2774   -1.8892   -0.0111 H   0  0  0  0  0  0
    1.6262    1.7864   -0.9387 H   0  0  0  0  0  0
    4.1210   -1.9125    1.1668 H   0  0  0  0  0  0
    1.7077   -1.9284    1.1902 H   0  0  0  0  0  0
    6.2344   -1.1107    1.7010 H   0  0  0  0  0  0
    6.2693   -1.9506    0.1454 H   0  0  0  0  0  0
    8.5890   -1.4163    0.9111 H   0  0  0  0  0  0
    8.1840    0.2962    0.9935 H   0  0  0  0  0  0
    8.2205   -0.5264   -0.5647 H   0  0  0  0  0  0
   -4.0405   -3.9658   -0.3858 H   0  0  0  0  0  0
   -2.4230   -3.7810   -1.0496 H   0  0  0  0  0  0
   -2.4268   -5.2639    0.9071 H   0  0  0  0  0  0
   -1.4140   -3.9198    1.2406 H   0  0  0  0  0  0
   -3.8172   -3.0149    2.3695 H   0  0  0  0  0  0
   -4.1354   -4.7178    2.3145 H   0  0  0  0  0  0
   -4.2134   -3.6140    4.7981 H   0  0  0  0  0  0
   -4.0900   -5.3326    4.5289 H   0  0  0  0  0  0
   -3.4544   -4.6700    6.8863 H   0  0  0  0  0  0
   -2.1478   -5.5041    6.0756 H   0  0  0  0  0  0
   -0.3536   -2.3928    5.4890 H   0  0  0  0  0  0
   -0.2628   -4.1197    5.2279 H   0  0  0  0  0  0
   -0.9107   -2.9899    3.1093 H   0  0  0  0  0  0
   -2.2113   -2.1465    3.8970 H   0  0  0  0  0  0
  1  4  2  0  0  0
  1  2  1  0  0  0
  2 12  1  0  0  0
  2  3  2  0  0  0
  3  9  1  0  0  0
  3 34  1  0  0  0
  4  8  1  0  0  0
  4 10  1  0  0  0
  5  6  1  0  0  0
  5  9  1  0  0  0
  5 25  1  0  0  0
  6  7  2  0  0  0
  6 35  1  0  0  0
  7  8  1  0  0  0
  8  9  2  0  0  0
 10 11  3  0  0  0
 12 17  1  0  0  0
 12 13  2  0  0  0
 13 14  1  0  0  0
 13 36  1  0  0  0
 14 18  1  0  0  0
 14 15  2  0  0  0
 15 22  1  0  0  0
 15 16  1  0  0  0
 16 17  2  0  0  0
 16 37  1  0  0  0
 17 38  1  0  0  0
 18 19  1  0  0  0
 18 20  1  0  0  0
 18 21  1  0  0  0
 22 23  1  0  0  0
 23 24  1  0  0  0
 23 39  1  0  0  0
 23 40  1  0  0  0
 24 41  1  0  0  0
 24 42  1  0  0  0
 24 43  1  0  0  0
 25 26  1  0  0  0
 25 44  1  0  0  0
 25 45  1  0  0  0
 26 27  1  0  0  0
 26 46  1  0  0  0
 26 47  1  0  0  0
 27 28  1  0  0  0
 27 48  1  0  0  0
 27 49  1  0  0  0
 28 29  1  0  0  0
 28 33  1  0  0  0
 29 30  1  0  0  0
 29 50  1  0  0  0
 29 51  1  0  0  0
 30 31  1  0  0  0
 30 52  1  0  0  0
 30 53  1  0  0  0
 31 32  1  0  0  0
 32 33  1  0  0  0
 32 54  1  0  0  0
 32 55  1  0  0  0
 33 56  1  0  0  0
 33 57  1  0  0  0
M  END
> <chembl_id>
CHEMBL1208906

> <chembl_pref_name>
None

> <s_m_source_file>
sdf/inactives_sanitized.sdf

> <i_m_source_file_index>
189

> <i_lp_mmshare_version>
49012

> <i_m_ct_stereo_status>
1

> <i_f3d_flags>
0

> <s_epik_input>
W0NIM11bQ0gyXU9jKFtjSF1bY0hdMSljKEMoRikoRilGKVtjSF1jMS1jKG5jMkMjTilbY0hdYyhjMjMpbihbY0hdbjMpW0NIMl1bQ0gyXVtDSDJdTjRbQ0gyXVtDSDJdT1tDSDJdW0NIMl00

> <s_epik_cmdline>
J2VwaWtfcHl0aG9uJywgJy1waHQnLCAnMC41JywgJy1waCcsICc3LjUnLCAnLW50JywgJy1tYScsICcyMDAnLCAnLWltYWUnLCAnPGluZmlsZS5tYWU+JywgJy1vbWFlJywgJzxvdXRmaWxlLm1hZT4n

> <r_lp_tautomer_probability>
1

> <r_epik_Ionization_Penalty>
  0.1982

> <r_epik_Ionization_Penalty_Charging>
  0.0000

> <r_epik_Ionization_Penalty_Neutral>
  0.1982

> <r_epik_State_Penalty>
  0.1880

> <r_epik_Charging_Adjusted_Penalty>
0.187952805315166

> <i_epik_Tot_Q>
0

> <i_epik_Tot_abs_Q>
0

> <s_lp_Force_Field>
OPLS3e

> <r_lp_Energy>
33.435709

> <b_lp_Chiralities_Consistent>
1

> <s_lp_Variant>
sdf/inactives_sanitized.sdf:189-1

$$$$
sdf/inactives_sanitized.sdf:190
                    3D
 Schrodinger Suite 2020-1.
 42 45  0  0  1  0            999 V2000
   -4.9211    1.0116   -0.6150 N   0  0  0  0  0  0
   -4.3568   -0.0588    0.0140 C   0  0  0  0  0  0
   -5.1137   -1.0585    0.6484 C   0  0  0  0  0  0
   -6.2709    1.1432   -0.6565 C   0  0  0  0  0  0
   -7.5618   -1.6448    1.0695 N   0  0  0  0  0  0
   -8.7068   -0.9830    0.6965 C   0  0  0  0  0  0
   -8.4854    0.1169    0.0231 N   0  0  0  0  0  0
   -7.1158    0.1929   -0.0589 C   0  0  0  0  0  0
   -6.5026   -0.9075    0.5931 C   0  0  0  0  0  0
   -6.7606    2.3226   -1.3546 C   0  0  0  0  0  0
   -7.1503    3.2605   -1.9093 N   0  0  0  0  0  0
   -2.8617   -0.1054    0.0017 C   0  0  0  0  0  0
   -2.0919    1.0669    0.0242 C   0  0  0  0  0  0
   -0.6907    1.0317    0.0091 C   0  0  0  0  0  0
   -0.0287   -0.2074   -0.0248 C   0  0  0  0  0  0
   -0.7936   -1.3840   -0.0469 C   0  0  0  0  0  0
   -2.1846   -1.3297   -0.0346 C   0  0  0  0  0  0
    0.1130    2.3367    0.0305 C   0  0  0  0  0  0
    0.9118    2.3576    1.0984 F   0  0  0  0  0  0
    0.8655    2.4169   -1.0675 F   0  0  0  0  0  0
   -0.6615    3.4224    0.0771 F   0  0  0  0  0  0
    1.3551   -0.1978   -0.0377 O   0  0  0  0  0  0
    2.0736   -1.4275   -0.0319 C   0  0  0  0  0  0
    3.5615   -1.1229   -0.0196 C   0  0  0  0  0  0
    4.2336   -0.9791    1.1972 C   0  0  0  0  0  0
    5.5960   -0.6906    1.2081 C   0  0  0  0  0  0
    6.2799   -0.5443    0.0030 C   0  0  0  0  0  0
    5.6143   -0.6828   -1.2134 C   0  0  0  0  0  0
    4.2520   -0.9713   -1.2251 C   0  0  0  0  0  0
   -4.6541   -1.8944    1.1549 H   0  0  0  0  0  0
   -7.5558   -2.5083    1.5931 H   0  0  0  0  0  0
   -9.6720   -1.3870    0.9657 H   0  0  0  0  0  0
   -2.5965    2.0216    0.0570 H   0  0  0  0  0  0
   -0.3270   -2.3566   -0.0774 H   0  0  0  0  0  0
   -2.7346   -2.2589   -0.0641 H   0  0  0  0  0  0
    1.8152   -2.0241    0.8456 H   0  0  0  0  0  0
    1.8294   -2.0240   -0.9133 H   0  0  0  0  0  0
    3.7030   -1.0871    2.1322 H   0  0  0  0  0  0
    6.1194   -0.5790    2.1461 H   0  0  0  0  0  0
    7.3362   -0.3194    0.0117 H   0  0  0  0  0  0
    6.1521   -0.5651   -2.1427 H   0  0  0  0  0  0
    3.7355   -1.0732   -2.1686 H   0  0  0  0  0  0
  1  2  2  0  0  0
  1  4  1  0  0  0
  2 12  1  0  0  0
  2  3  1  0  0  0
  3  9  2  0  0  0
  3 30  1  0  0  0
  4  8  2  0  0  0
  4 10  1  0  0  0
  5  6  1  0  0  0
  5  9  1  0  0  0
  5 31  1  0  0  0
  6  7  2  0  0  0
  6 32  1  0  0  0
  7  8  1  0  0  0
  8  9  1  0  0  0
 10 11  3  0  0  0
 12 17  1  0  0  0
 12 13  2  0  0  0
 13 14  1  0  0  0
 13 33  1  0  0  0
 14 15  2  0  0  0
 14 18  1  0  0  0
 15 16  1  0  0  0
 15 22  1  0  0  0
 16 17  2  0  0  0
 16 34  1  0  0  0
 17 35  1  0  0  0
 18 19  1  0  0  0
 18 20  1  0  0  0
 18 21  1  0  0  0
 22 23  1  0  0  0
 23 24  1  0  0  0
 23 36  1  0  0  0
 23 37  1  0  0  0
 24 25  2  0  0  0
 24 29  1  0  0  0
 25 26  1  0  0  0
 25 38  1  0  0  0
 26 27  2  0  0  0
 26 39  1  0  0  0
 27 28  1  0  0  0
 27 40  1  0  0  0
 28 29  2  0  0  0
 28 41  1  0  0  0
 29 42  1  0  0  0
M  END
> <chembl_id>
CHEMBL1208845

> <chembl_pref_name>
None

> <s_m_source_file>
sdf/inactives_sanitized.sdf

> <i_m_source_file_index>
190

> <i_lp_mmshare_version>
49012

> <i_m_ct_stereo_status>
1

> <i_f3d_flags>
0

> <s_epik_input>
bjFbY0hdW25IXWMoYzEyKVtjSF1jKG5jMkMjTiktYzNbY0hdYyhDKEYpKEYpRiljKFtjSF1bY0hdMylPW0NIMl1jNFtjSF1bY0hdW2NIXVtjSF1bY0hdNA==

> <s_epik_cmdline>
J2VwaWtfcHl0aG9uJywgJy1waHQnLCAnMC41JywgJy1waCcsICc3LjUnLCAnLW50JywgJy1tYScsICcyMDAnLCAnLWltYWUnLCAnPGluZmlsZS5tYWU+JywgJy1vbWFlJywgJzxvdXRmaWxlLm1hZT4n

> <r_lp_tautomer_probability>
1

> <r_epik_Ionization_Penalty>
  0.0350

> <r_epik_Ionization_Penalty_Charging>
  0.0000

> <r_epik_Ionization_Penalty_Neutral>
  0.0350

> <r_epik_State_Penalty>
 -0.0000

> <r_epik_Charging_Adjusted_Penalty>
1.09957420349954e-07

> <i_epik_Tot_Q>
0

> <i_epik_Tot_abs_Q>
0

> <s_lp_Force_Field>
OPLS3e

> <r_lp_Energy>
36.583867

> <b_lp_Chiralities_Consistent>
1

> <s_lp_Variant>
sdf/inactives_sanitized.sdf:190-1

$$$$
sdf/inactives_sanitized.sdf:191
                    3D
 Schrodinger Suite 2020-1.
 47 49  0  0  1  0            999 V2000
   -0.5141    1.0556   -0.3188 C   0  0  0  0  0  0
    0.0603   -0.1999   -0.2030 N   0  0  0  0  0  0
   -0.5769   -1.4329   -0.2835 C   0  0  0  0  0  0
   -1.9624   -1.2979   -0.2939 N   0  0  0  0  0  0
   -2.6388   -0.0998   -0.5463 N   0  0  0  0  0  0
   -1.9597    0.9847   -0.5310 C   0  0  0  0  0  0
    0.0143   -2.5182   -0.3095 O   0  0  0  0  0  0
   -2.6913    2.2147   -0.7497 C   0  0  0  0  0  0
   -3.3093    3.1757   -0.9367 N   0  0  0  0  0  0
    0.1000    2.1253   -0.2699 O   0  0  0  0  0  0
    1.5296   -0.2298   -0.0095 C   0  0  0  0  0  0
   -2.8140   -2.4288   -0.1358 C   0  0  0  0  0  0
   -3.9318   -2.6032   -0.9696 C   0  0  0  0  0  0
   -4.7721   -3.7036   -0.8134 C   0  0  0  0  0  0
   -4.5135   -4.6462    0.1791 C   0  0  0  0  0  0
   -3.4116   -4.4956    1.0287 C   0  0  0  0  0  0
   -2.5732   -3.3862    0.8662 C   0  0  0  0  0  0
   -3.1107   -5.5154    2.1255 C   0  0  0  0  0  0
   -1.8321   -5.8907    2.0660 F   0  0  0  0  0  0
   -3.3396   -4.9598    3.3155 F   0  0  0  0  0  0
   -3.8677   -6.6096    2.0232 F   0  0  0  0  0  0
    2.3319   -0.2090   -1.3299 C   0  0  0  0  0  0
    3.8615   -0.1364   -1.1310 C   0  0  0  0  0  0
    4.3043    1.0299   -0.3574 N   0  0  0  0  0  0
    5.7286    0.9133   -0.0179 C   0  0  0  0  0  0
    6.2323    2.1499    0.7565 C   0  0  0  0  0  0
    5.9493    3.3347    0.0206 O   0  0  0  0  0  0
    4.5555    3.5071   -0.2104 C   0  0  0  0  0  0
    3.9963    2.3116   -1.0108 C   0  0  0  0  0  0
    1.8351   -1.0946    0.5824 H   0  0  0  0  0  0
    1.8395    0.6134    0.6107 H   0  0  0  0  0  0
   -4.1532   -1.8916   -1.7521 H   0  0  0  0  0  0
   -5.6252   -3.8265   -1.4644 H   0  0  0  0  0  0
   -5.1791   -5.4908    0.2828 H   0  0  0  0  0  0
   -1.7326   -3.2674    1.5356 H   0  0  0  0  0  0
    2.1167   -1.1264   -1.8790 H   0  0  0  0  0  0
    1.9997    0.5927   -1.9902 H   0  0  0  0  0  0
    4.1729   -1.0386   -0.6016 H   0  0  0  0  0  0
    4.3640   -0.1503   -2.0999 H   0  0  0  0  0  0
    5.8880    0.0120    0.5760 H   0  0  0  0  0  0
    6.3149    0.7819   -0.9293 H   0  0  0  0  0  0
    5.7837    2.2005    1.7506 H   0  0  0  0  0  0
    7.3101    2.0817    0.9057 H   0  0  0  0  0  0
    4.0229    3.6279    0.7351 H   0  0  0  0  0  0
    4.4060    4.4308   -0.7696 H   0  0  0  0  0  0
    4.4106    2.3157   -2.0206 H   0  0  0  0  0  0
    2.9185    2.4251   -1.1255 H   0  0  0  0  0  0
  1 10  2  0  0  0
  1  6  1  0  0  0
  1  2  1  0  0  0
  2  3  1  0  0  0
  2 11  1  0  0  0
  3  7  2  0  0  0
  3  4  1  0  0  0
  4  5  1  0  0  0
  4 12  1  0  0  0
  5  6  2  0  0  0
  6  8  1  0  0  0
  8  9  3  0  0  0
 11 22  1  0  0  0
 11 30  1  0  0  0
 11 31  1  0  0  0
 12 17  1  0  0  0
 12 13  2  0  0  0
 13 14  1  0  0  0
 13 32  1  0  0  0
 14 15  2  0  0  0
 14 33  1  0  0  0
 15 16  1  0  0  0
 15 34  1  0  0  0
 16 17  2  0  0  0
 16 18  1  0  0  0
 17 35  1  0  0  0
 18 19  1  0  0  0
 18 20  1  0  0  0
 18 21  1  0  0  0
 22 23  1  0  0  0
 22 36  1  0  0  0
 22 37  1  0  0  0
 23 24  1  0  0  0
 23 38  1  0  0  0
 23 39  1  0  0  0
 24 25  1  0  0  0
 24 29  1  0  0  0
 25 26  1  0  0  0
 25 40  1  0  0  0
 25 41  1  0  0  0
 26 27  1  0  0  0
 26 42  1  0  0  0
 26 43  1  0  0  0
 27 28  1  0  0  0
 28 29  1  0  0  0
 28 44  1  0  0  0
 28 45  1  0  0  0
 29 46  1  0  0  0
 29 47  1  0  0  0
M  END
> <chembl_id>
CHEMBL1082525

> <chembl_pref_name>
None

> <s_m_source_file>
sdf/inactives_sanitized.sdf

> <i_m_source_file_index>
191

> <i_lp_mmshare_version>
49012

> <i_m_ct_stereo_status>
1

> <i_f3d_flags>
0

> <s_epik_input>
W0NIMl0xW0NIMl1PW0NIMl1bQ0gyXU4xW0NIMl1bQ0gyXVtDSDJdbihjMj1PKWMoPU8pbihuYzJDI04pLWMzW2NIXVtjSF1bY0hdYyhbY0hdMylDKEYpKEYpRg==

> <s_epik_cmdline>
J2VwaWtfcHl0aG9uJywgJy1waHQnLCAnMC41JywgJy1waCcsICc3LjUnLCAnLW50JywgJy1tYScsICcyMDAnLCAnLWltYWUnLCAnPGluZmlsZS5tYWU+JywgJy1vbWFlJywgJzxvdXRmaWxlLm1hZT4n

> <r_epik_Ionization_Penalty>
  0.3514

> <r_epik_Ionization_Penalty_Charging>
  0.0000

> <r_epik_Ionization_Penalty_Neutral>
  0.3514

> <r_epik_State_Penalty>
  0.3477

> <r_epik_Charging_Adjusted_Penalty>
0.347671939527866

> <i_epik_Tot_Q>
0

> <i_epik_Tot_abs_Q>
0

> <s_lp_Force_Field>
OPLS3e

> <r_lp_Energy>
60.244944

> <b_lp_Chiralities_Consistent>
1

> <s_lp_Variant>
sdf/inactives_sanitized.sdf:191-1

$$$$
sdf/inactives_sanitized.sdf:191
                    3D
 Schrodinger Suite 2020-1.
 48 50  0  0  1  0            999 V2000
   -0.6316    1.0868    0.0142 C   0  0  0  0  0  0
   -0.0465   -0.1689    0.0304 N   0  0  0  0  0  0
   -0.6888   -1.4018    0.0689 C   0  0  0  0  0  0
   -2.0638   -1.2694   -0.0845 N   0  0  0  0  0  0
   -2.7701   -0.0693    0.0154 N   0  0  0  0  0  0
   -2.0939    1.0174    0.0344 C   0  0  0  0  0  0
   -0.1074   -2.4857    0.1959 O   0  0  0  0  0  0
   -2.8477    2.2521    0.0910 C   0  0  0  0  0  0
   -3.4841    3.2175    0.1451 N   0  0  0  0  0  0
   -0.0151    2.1557    0.0033 O   0  0  0  0  0  0
    1.4359   -0.2009    0.0622 C   0  0  0  0  0  0
   -2.8869   -2.4174   -0.1621 C   0  0  0  0  0  0
   -2.7039   -3.3546   -1.1895 C   0  0  0  0  0  0
   -3.5201   -4.4815   -1.2674 C   0  0  0  0  0  0
   -4.5252   -4.6850   -0.3229 C   0  0  0  0  0  0
   -4.7260   -3.7608    0.7101 C   0  0  0  0  0  0
   -3.9047   -2.6294    0.7809 C   0  0  0  0  0  0
   -5.8190   -3.9641    1.7575 C   0  0  0  0  0  0
   -5.2913   -3.9086    2.9809 F   0  0  0  0  0  0
   -6.7301   -2.9983    1.6385 F   0  0  0  0  0  0
   -6.4382   -5.1389    1.6266 F   0  0  0  0  0  0
    2.0190   -0.2048    1.4894 C   0  0  0  0  0  0
    3.5565   -0.2320    1.4833 C   0  0  0  0  0  0
    4.1240   -0.0593    2.9127 N   0  3  0  0  0  0
    3.8404   -1.2856    3.8127 C   0  0  0  0  0  0
    4.5000   -1.0598    5.1872 C   0  0  0  0  0  0
    5.8906   -0.7880    5.0405 O   0  0  0  0  0  0
    6.1820    0.3817    4.2822 C   0  0  0  0  0  0
    5.6389    0.2407    2.8474 C   0  0  0  0  0  0
    1.8543    0.6408   -0.4936 H   0  0  0  0  0  0
    1.8139   -1.0687   -0.4823 H   0  0  0  0  0  0
   -1.9317   -3.2109   -1.9319 H   0  0  0  0  0  0
   -3.3740   -5.1984   -2.0619 H   0  0  0  0  0  0
   -5.1459   -5.5657   -0.4037 H   0  0  0  0  0  0
   -4.0563   -1.9160    1.5791 H   0  0  0  0  0  0
    1.6764    0.6778    2.0316 H   0  0  0  0  0  0
    1.6367   -1.0767    2.0197 H   0  0  0  0  0  0
    3.9697   -1.1595    1.0832 H   0  0  0  0  0  0
    3.9454    0.6135    0.9133 H   0  0  0  0  0  0
    2.7595   -1.3798    3.9110 H   0  0  0  0  0  0
    4.2380   -2.1642    3.3013 H   0  0  0  0  0  0
    4.0123   -0.2452    5.7259 H   0  0  0  0  0  0
    4.3852   -1.9511    5.8048 H   0  0  0  0  0  0
    5.7665    1.2635    4.7738 H   0  0  0  0  0  0
    7.2632    0.5203    4.2592 H   0  0  0  0  0  0
    6.1100   -0.5828    2.3071 H   0  0  0  0  0  0
    5.7581    1.1644    2.2791 H   0  0  0  0  0  0
    3.6848    0.7441    3.3401 H   0  0  0  0  0  0
  1 10  2  0  0  0
  1  6  1  0  0  0
  1  2  1  0  0  0
  2  3  1  0  0  0
  2 11  1  0  0  0
  3  7  2  0  0  0
  3  4  1  0  0  0
  4  5  1  0  0  0
  4 12  1  0  0  0
  5  6  2  0  0  0
  6  8  1  0  0  0
  8  9  3  0  0  0
 11 22  1  0  0  0
 11 30  1  0  0  0
 11 31  1  0  0  0
 12 17  1  0  0  0
 12 13  2  0  0  0
 13 14  1  0  0  0
 13 32  1  0  0  0
 14 15  2  0  0  0
 14 33  1  0  0  0
 15 16  1  0  0  0
 15 34  1  0  0  0
 16 17  2  0  0  0
 16 18  1  0  0  0
 17 35  1  0  0  0
 18 19  1  0  0  0
 18 20  1  0  0  0
 18 21  1  0  0  0
 22 23  1  0  0  0
 22 36  1  0  0  0
 22 37  1  0  0  0
 23 24  1  0  0  0
 23 38  1  0  0  0
 23 39  1  0  0  0
 24 25  1  0  0  0
 24 29  1  0  0  0
 24 48  1  0  0  0
 25 26  1  0  0  0
 25 40  1  0  0  0
 25 41  1  0  0  0
 26 27  1  0  0  0
 26 42  1  0  0  0
 26 43  1  0  0  0
 27 28  1  0  0  0
 28 29  1  0  0  0
 28 44  1  0  0  0
 28 45  1  0  0  0
 29 46  1  0  0  0
 29 47  1  0  0  0
M  CHG  1  24   1
M  END
> <chembl_id>
CHEMBL1082525

> <chembl_pref_name>
None

> <s_m_source_file>
sdf/inactives_sanitized.sdf

> <i_m_source_file_index>
191

> <i_lp_mmshare_version>
49012

> <i_m_ct_stereo_status>
1

> <i_f3d_flags>
0

> <s_epik_input>
W0NIMl0xW0NIMl1PW0NIMl1bQ0gyXU4xW0NIMl1bQ0gyXVtDSDJdbihjMj1PKWMoPU8pbihuYzJDI04pLWMzW2NIXVtjSF1bY0hdYyhbY0hdMylDKEYpKEYpRg==

> <s_epik_cmdline>
J2VwaWtfcHl0aG9uJywgJy1waHQnLCAnMC41JywgJy1waCcsICc3LjUnLCAnLW50JywgJy1tYScsICcyMDAnLCAnLWltYWUnLCAnPGluZmlsZS5tYWU+JywgJy1vbWFlJywgJzxvdXRmaWxlLm1hZT4n

> <r_epik_Ionization_Penalty>
  0.4765

> <r_epik_Ionization_Penalty_Charging>
  0.4765

> <r_epik_Ionization_Penalty_Neutral>
  0.0000

> <r_epik_State_Penalty>
  0.4812

> <r_epik_Charging_Adjusted_Penalty>
0.957736004338504

> <i_epik_Tot_Q>
1

> <i_epik_Tot_abs_Q>
1

> <s_lp_Force_Field>
OPLS3e

> <r_lp_Energy>
66.671328

> <b_lp_Chiralities_Consistent>
1

> <s_lp_Variant>
sdf/inactives_sanitized.sdf:191-2

$$$$
sdf/inactives_sanitized.sdf:192
                    3D
 Schrodinger Suite 2020-1.
 74 75  0  0  1  0            999 V2000
    3.2209    4.0004   -6.2775 C   0  0  0  0  0  0
    2.4602    3.8066   -7.4297 C   0  0  0  0  0  0
    1.1926    3.2316   -7.3430 C   0  0  0  0  0  0
    0.6899    2.8484   -6.1028 C   0  0  0  0  0  0
    1.4406    3.0356   -4.9336 C   0  0  0  0  0  0
    2.7119    3.6169   -5.0405 C   0  0  0  0  0  0
    0.9035    2.6173   -3.6032 C   0  0  0  0  0  0
    1.2052    3.3457   -2.4450 C   0  0  0  0  0  0
    0.7306    2.9382   -1.2020 C   0  0  0  0  0  0
   -0.0439    1.7820   -1.0906 C   0  0  0  0  0  0
   -0.3644    1.0564   -2.2411 C   0  0  0  0  0  0
    0.0971    1.4784   -3.4834 C   0  0  0  0  0  0
    3.1080    4.3109   -9.0214 S   0  0  0  0  0  0
    2.5309    6.0998   -9.1691 C   0  0  0  0  0  0
    4.5723    4.3002   -8.9268 O   0  0  0  0  0  0
    2.4275    3.5155  -10.0496 O   0  0  0  0  0  0
   -0.5042    1.3150    0.2958 C   0  0  2  0  0  0
    0.1544    0.0646    0.6882 N   0  0  1  0  0  0
   -2.0437    1.1918    0.4389 C   0  0  0  0  0  0
   -2.3848    0.9281    1.7014 F   0  0  0  0  0  0
   -2.6484    2.3322    0.1042 F   0  0  0  0  0  0
   -2.5668    0.2251   -0.3173 F   0  0  0  0  0  0
    1.6185    0.1538    0.9089 C   0  0  2  0  0  0
    2.2806   -0.7514   -0.1537 C   0  0  0  0  0  0
    1.9815   -0.2354    2.3684 C   0  0  0  0  0  0
    3.4901   -0.2358    2.7240 C   0  0  0  0  0  0
    3.7151   -0.7264    4.1703 C   0  0  0  0  0  0
    4.1628    1.1288    2.4616 C   0  0  0  0  0  0
    2.3080   -1.9730    0.0099 O   0  0  0  0  0  0
    2.7943   -0.1224   -1.2250 N   0  0  0  0  0  0
    3.5283   -0.7648   -2.3188 C   0  0  2  0  0  0
    4.6496    0.1862   -2.7813 C   0  0  0  0  0  0
    5.8801   -0.3273   -2.8654 N   0  0  0  0  0  0
    4.3920    1.3519   -3.0819 O   0  0  0  0  0  0
    2.6212   -1.1605   -3.5138 C   0  0  0  0  0  0
    1.4935   -2.1479   -3.1580 C   0  0  0  0  0  0
    0.5841   -2.7131   -4.7136 S   0  0  0  0  0  0
   -0.7226   -3.8985   -4.0524 C   0  0  0  0  0  0
   -0.1069   -1.5544   -5.2882 O   0  0  0  0  0  0
    1.5217   -3.4841   -5.5363 O   0  0  0  0  0  0
    4.2038    4.4453   -6.3347 H   0  0  0  0  0  0
    0.5935    3.0826   -8.2294 H   0  0  0  0  0  0
   -0.2968    2.4112   -6.0583 H   0  0  0  0  0  0
    3.3241    3.7641   -4.1629 H   0  0  0  0  0  0
    1.8120    4.2376   -2.4996 H   0  0  0  0  0  0
    0.9865    3.5128   -0.3236 H   0  0  0  0  0  0
   -0.9526    0.1532   -2.1785 H   0  0  0  0  0  0
   -0.1513    0.8893   -4.3530 H   0  0  0  0  0  0
    2.8772    6.5034  -10.1201 H   0  0  0  0  0  0
    2.9497    6.6768   -8.3452 H   0  0  0  0  0  0
    1.4424    6.1255   -9.1277 H   0  0  0  0  0  0
   -0.1979    2.0696    1.0232 H   0  0  0  0  0  0
   -0.3307   -0.3626    1.4649 H   0  0  0  0  0  0
    1.9738    1.1760    0.7632 H   0  0  0  0  0  0
    1.4764    0.4579    3.0434 H   0  0  0  0  0  0
    1.5545   -1.2140    2.5979 H   0  0  0  0  0  0
    3.9828   -0.9651    2.0801 H   0  0  0  0  0  0
    4.1023    0.0554    4.8240 H   0  0  0  0  0  0
    4.4281   -1.5511    4.1925 H   0  0  0  0  0  0
    2.7936   -1.0885    4.6276 H   0  0  0  0  0  0
    3.4357    1.9391    2.4041 H   0  0  0  0  0  0
    4.7088    1.1111    1.5177 H   0  0  0  0  0  0
    4.8801    1.3986    3.2367 H   0  0  0  0  0  0
    2.7115    0.8821   -1.2910 H   0  0  0  0  0  0
    3.9928   -1.6770   -1.9359 H   0  0  0  0  0  0
    6.0496   -1.2920   -2.6205 H   0  0  0  0  0  0
    6.6485    0.2491   -3.1763 H   0  0  0  0  0  0
    2.1795   -0.2686   -3.9594 H   0  0  0  0  0  0
    3.2376   -1.6140   -4.2923 H   0  0  0  0  0  0
    1.8876   -3.0380   -2.6674 H   0  0  0  0  0  0
    0.7616   -1.7079   -2.4815 H   0  0  0  0  0  0
   -1.3049   -4.2833   -4.8889 H   0  0  0  0  0  0
   -1.3713   -3.3604   -3.3618 H   0  0  0  0  0  0
   -0.2264   -4.7184   -3.5341 H   0  0  0  0  0  0
  1  6  2  0  0  0
  1  2  1  0  0  0
  1 41  1  0  0  0
  2  3  2  0  0  0
  2 13  1  0  0  0
  3  4  1  0  0  0
  3 42  1  0  0  0
  4  5  2  0  0  0
  4 43  1  0  0  0
  5  6  1  0  0  0
  5  7  1  0  0  0
  6 44  1  0  0  0
  7 12  1  0  0  0
  7  8  2  0  0  0
  8  9  1  0  0  0
  8 45  1  0  0  0
  9 10  2  0  0  0
  9 46  1  0  0  0
 10 11  1  0  0  0
 10 17  1  0  0  0
 11 12  2  0  0  0
 11 47  1  0  0  0
 12 48  1  0  0  0
 13 14  1  0  0  0
 13 15  2  0  0  0
 13 16  2  0  0  0
 14 49  1  0  0  0
 14 50  1  0  0  0
 14 51  1  0  0  0
 17 18  1  0  0  0
 17 19  1  0  0  0
 17 52  1  0  0  0
 18 23  1  0  0  0
 18 53  1  0  0  0
 19 20  1  0  0  0
 19 21  1  0  0  0
 19 22  1  0  0  0
 23 24  1  0  0  0
 23 25  1  0  0  0
 23 54  1  0  0  0
 24 29  2  0  0  0
 24 30  1  0  0  0
 25 26  1  0  0  0
 25 55  1  0  0  0
 25 56  1  0  0  0
 26 27  1  0  0  0
 26 28  1  0  0  0
 26 57  1  0  0  0
 27 58  1  0  0  0
 27 59  1  0  0  0
 27 60  1  0  0  0
 28 61  1  0  0  0
 28 62  1  0  0  0
 28 63  1  0  0  0
 30 31  1  0  0  0
 30 64  1  0  0  0
 31 32  1  0  0  0
 31 35  1  0  0  0
 31 65  1  0  0  0
 32 33  1  0  0  0
 32 34  2  0  0  0
 33 66  1  0  0  0
 33 67  1  0  0  0
 35 36  1  0  0  0
 35 68  1  0  0  0
 35 69  1  0  0  0
 36 37  1  0  0  0
 36 70  1  0  0  0
 36 71  1  0  0  0
 37 38  1  0  0  0
 37 39  2  0  0  0
 37 40  2  0  0  0
 38 72  1  0  0  0
 38 73  1  0  0  0
 38 74  1  0  0  0
M  END
> <chembl_id>
CHEMBL250293

> <chembl_pref_name>
None

> <i_m_ct_stereo_status>
1

> <s_m_source_file>
sdf/inactives_sanitized.sdf

> <i_m_source_file_index>
192

> <i_lp_mmshare_version>
49012

> <i_f3d_flags>
0

> <s_epik_input>
W0NIM11TKD1PKSg9TyljMVtjSF1bY0hdYyhbY0hdW2NIXTEpLWMyW2NIXVtjSF1jKFtjSF1bY0hdMilbQ0BASF0oQyhGKShGKUYpW05IXVtDQEBIXShbQ0gyXVtDSF0oW0NIM10pW0NIM10pQyg9TylbTkhdW0NASF0oQyg9TylbTkgyXSlbQ0gyXVtDSDJdUyg9TykoPU8pW0NIM10=

> <s_epik_cmdline>
J2VwaWtfcHl0aG9uJywgJy1waHQnLCAnMC41JywgJy1waCcsICc3LjUnLCAnLW50JywgJy1tYScsICcyMDAnLCAnLWltYWUnLCAnPGluZmlsZS5tYWU+JywgJy1vbWFlJywgJzxvdXRmaWxlLm1hZT4n

> <r_lp_tautomer_probability>
1

> <r_epik_Ionization_Penalty>
  0.0004

> <r_epik_Ionization_Penalty_Charging>
  0.0000

> <r_epik_Ionization_Penalty_Neutral>
  0.0004

> <r_epik_State_Penalty>
 -0.0000

> <r_epik_Charging_Adjusted_Penalty>
0

> <i_epik_Tot_Q>
0

> <i_epik_Tot_abs_Q>
0

> <s_lp_Force_Field>
OPLS3e

> <r_lp_Energy>
19.726095

> <b_lp_Chiralities_Consistent>
1

> <s_lp_Variant>
sdf/inactives_sanitized.sdf:192-1

$$$$
sdf/inactives_sanitized.sdf:193
                    3D
 Schrodinger Suite 2020-1.
 49 51  0  0  1  0            999 V2000
   -1.0382   -3.6713   -2.9200 N   0  0  1  0  0  0
   -1.4684   -2.2782   -2.7334 C   0  0  1  0  0  0
   -3.0063   -2.1141   -2.8667 C   0  0  0  0  0  0
   -3.5297   -2.7168   -4.1806 C   0  0  0  0  0  0
   -3.0139   -4.1540   -4.3537 C   0  0  0  0  0  0
   -1.4823   -4.2445   -4.1907 C   0  0  0  0  0  0
   -1.0222   -1.8145   -1.3268 C   0  0  0  0  0  0
   -1.0756   -2.5731   -0.3550 O   0  0  0  0  0  0
   -0.5866   -0.5443   -1.2304 N   0  0  0  0  0  0
   -0.0541    0.0805   -0.0152 C   0  0  1  0  0  0
    1.4903    0.0434    0.0581 C   0  0  0  0  0  0
    3.0059   -4.0066    0.0318 C   0  0  0  0  0  0
    2.5411   -3.4266    1.2188 C   0  0  0  0  0  0
    2.0723   -2.1161    1.2327 C   0  0  0  0  0  0
    2.0656   -1.3673    0.0560 C   0  0  0  0  0  0
    2.5450   -1.9269   -1.1292 C   0  0  0  0  0  0
    3.0092   -3.2388   -1.1394 C   0  0  0  0  0  0
    3.4749   -5.4208    0.0127 C   0  0  0  0  0  0
    3.1027   -6.2783   -1.0304 C   0  0  0  0  0  0
    3.5274   -7.6041   -1.0473 C   0  0  0  0  0  0
    4.3338   -8.0864   -0.0160 C   0  0  0  0  0  0
    4.7152   -7.2434    1.0285 C   0  0  0  0  0  0
    4.2863   -5.9186    1.0400 C   0  0  0  0  0  0
    4.7759   -9.4729   -0.0287 C   0  0  0  0  0  0
    5.1270  -10.5756   -0.0387 N   0  0  0  0  0  0
   -0.5768    1.4511    0.1063 C   0  0  0  0  0  0
   -0.9876    2.5288    0.2018 N   0  0  0  0  0  0
   -0.0316   -3.7280   -2.8587 H   0  0  0  0  0  0
   -0.9422   -1.6441   -3.4508 H   0  0  0  0  0  0
   -3.5144   -2.5996   -2.0302 H   0  0  0  0  0  0
   -3.2832   -1.0599   -2.8107 H   0  0  0  0  0  0
   -4.6199   -2.6997   -4.1989 H   0  0  0  0  0  0
   -3.1958   -2.1056   -5.0205 H   0  0  0  0  0  0
   -3.5002   -4.8331   -3.6516 H   0  0  0  0  0  0
   -3.2906   -4.5203   -5.3428 H   0  0  0  0  0  0
   -1.1612   -5.2857   -4.2307 H   0  0  0  0  0  0
   -0.9817   -3.7201   -5.0061 H   0  0  0  0  0  0
   -0.4926   -0.0083   -2.0806 H   0  0  0  0  0  0
   -0.4543   -0.4237    0.8673 H   0  0  0  0  0  0
    1.9185    0.6125   -0.7692 H   0  0  0  0  0  0
    1.8310    0.5571    0.9586 H   0  0  0  0  0  0
    2.5218   -3.9983    2.1352 H   0  0  0  0  0  0
    1.6969   -1.6925    2.1531 H   0  0  0  0  0  0
    2.5385   -1.3566   -2.0468 H   0  0  0  0  0  0
    3.3678   -3.6597   -2.0675 H   0  0  0  0  0  0
    2.4709   -5.9219   -1.8310 H   0  0  0  0  0  0
    3.2220   -8.2461   -1.8619 H   0  0  0  0  0  0
    5.3402   -7.6037    1.8338 H   0  0  0  0  0  0
    4.5918   -5.2772    1.8537 H   0  0  0  0  0  0
  1  2  1  0  0  0
  1  6  1  0  0  0
  1 28  1  0  0  0
  2  3  1  0  0  0
  2  7  1  0  0  0
  2 29  1  0  0  0
  3  4  1  0  0  0
  3 30  1  0  0  0
  3 31  1  0  0  0
  4  5  1  0  0  0
  4 32  1  0  0  0
  4 33  1  0  0  0
  5  6  1  0  0  0
  5 34  1  0  0  0
  5 35  1  0  0  0
  6 36  1  0  0  0
  6 37  1  0  0  0
  7  8  2  0  0  0
  7  9  1  0  0  0
  9 10  1  0  0  0
  9 38  1  0  0  0
 10 11  1  0  0  0
 10 26  1  0  0  0
 10 39  1  0  0  0
 11 15  1  0  0  0
 11 40  1  0  0  0
 11 41  1  0  0  0
 12 13  2  0  0  0
 12 17  1  0  0  0
 12 18  1  0  0  0
 13 14  1  0  0  0
 13 42  1  0  0  0
 14 15  2  0  0  0
 14 43  1  0  0  0
 15 16  1  0  0  0
 16 17  2  0  0  0
 16 44  1  0  0  0
 17 45  1  0  0  0
 18 19  2  0  0  0
 18 23  1  0  0  0
 19 20  1  0  0  0
 19 46  1  0  0  0
 20 21  2  0  0  0
 20 47  1  0  0  0
 21 22  1  0  0  0
 21 24  1  0  0  0
 22 23  2  0  0  0
 22 48  1  0  0  0
 23 49  1  0  0  0
 24 25  3  0  0  0
 26 27  3  0  0  0
M  END
> <chembl_id>
CHEMBL3261919

> <chembl_pref_name>
None

> <i_m_ct_stereo_status>
1

> <s_m_source_file>
sdf/inactives_sanitized.sdf

> <i_m_source_file_index>
193

> <i_lp_mmshare_version>
49012

> <i_f3d_flags>
0

> <s_epik_input>
W0NIMl0xW0NIMl1bQ0gyXVtDSDJdW05IXVtDQEBIXTFDKD1PKVtOSF1bQ0BIXShDI04pW0NIMl1jKFtjSF1bY0hdMilbY0hdW2NIXWMyLWMzW2NIXVtjSF1jKEMjTilbY0hdW2NIXTM=

> <s_epik_cmdline>
J2VwaWtfcHl0aG9uJywgJy1waHQnLCAnMC41JywgJy1waCcsICc3LjUnLCAnLW50JywgJy1tYScsICcyMDAnLCAnLWltYWUnLCAnPGluZmlsZS5tYWU+JywgJy1vbWFlJywgJzxvdXRmaWxlLm1hZT4n

> <r_epik_Ionization_Penalty>
  0.3136

> <r_epik_Ionization_Penalty_Charging>
  0.0000

> <r_epik_Ionization_Penalty_Neutral>
  0.3136

> <r_epik_State_Penalty>
  0.3078

> <r_epik_Charging_Adjusted_Penalty>
0.307765777714829

> <i_epik_Tot_Q>
0

> <i_epik_Tot_abs_Q>
0

> <s_lp_Force_Field>
OPLS3e

> <r_lp_Energy>
29.944675

> <b_lp_Chiralities_Consistent>
1

> <s_lp_Variant>
sdf/inactives_sanitized.sdf:193-1

$$$$
sdf/inactives_sanitized.sdf:193
                    3D
 Schrodinger Suite 2020-1.
 50 52  0  0  1  0            999 V2000
   -1.6816   -3.7559   -2.5876 N   0  3  0  0  0  0
   -1.4783   -2.2336   -2.7743 C   0  0  1  0  0  0
   -2.8145   -1.5964   -3.2339 C   0  0  0  0  0  0
   -3.3599   -2.2673   -4.5082 C   0  0  0  0  0  0
   -3.4978   -3.7906   -4.3282 C   0  0  0  0  0  0
   -2.1816   -4.4471   -3.8700 C   0  0  0  0  0  0
   -1.0306   -1.6861   -1.3972 C   0  0  0  0  0  0
   -1.1071   -2.3548   -0.3629 O   0  0  0  0  0  0
   -0.5559   -0.4282   -1.4055 N   0  0  0  0  0  0
   -0.0598    0.2937   -0.2337 C   0  0  1  0  0  0
    1.3893   -0.0985    0.1334 C   0  0  0  0  0  0
    2.8961    1.9815    3.6140 C   0  0  0  0  0  0
    3.1957    2.4393    2.3248 C   0  0  0  0  0  0
    2.7135    1.7706    1.2036 C   0  0  0  0  0  0
    1.9227    0.6316    1.3583 C   0  0  0  0  0  0
    1.6152    0.1658    2.6369 C   0  0  0  0  0  0
    2.1004    0.8375    3.7560 C   0  0  0  0  0  0
    3.4176    2.6995    4.8118 C   0  0  0  0  0  0
    3.9268    1.9870    5.9049 C   0  0  0  0  0  0
    4.4241    2.6556    7.0206 C   0  0  0  0  0  0
    4.4153    4.0506    7.0538 C   0  0  0  0  0  0
    3.9074    4.7740    5.9743 C   0  0  0  0  0  0
    3.4117    4.0994    4.8617 C   0  0  0  0  0  0
    4.9380    4.7530    8.2165 C   0  0  0  0  0  0
    5.3538    5.3115    9.1408 N   0  0  0  0  0  0
   -0.2276    1.7420   -0.4458 C   0  0  0  0  0  0
   -0.3596    2.8794   -0.6131 N   0  0  0  0  0  0
   -0.8088   -4.1754   -2.2989 H   0  0  0  0  0  0
   -0.6586   -2.1143   -3.4854 H   0  0  0  0  0  0
   -3.5678   -1.6899   -2.4484 H   0  0  0  0  0  0
   -2.6876   -0.5267   -3.4091 H   0  0  0  0  0  0
   -4.3263   -1.8355   -4.7728 H   0  0  0  0  0  0
   -2.6933   -2.0567   -5.3463 H   0  0  0  0  0  0
   -4.2831   -4.0059   -3.6019 H   0  0  0  0  0  0
   -3.8234   -4.2428   -5.2660 H   0  0  0  0  0  0
   -2.3030   -5.5012   -3.6187 H   0  0  0  0  0  0
   -1.3809   -4.3412   -4.6036 H   0  0  0  0  0  0
   -0.4727    0.0526   -2.2897 H   0  0  0  0  0  0
   -0.7133    0.0842    0.6165 H   0  0  0  0  0  0
    1.4555   -1.1724    0.3162 H   0  0  0  0  0  0
    2.0535    0.0847   -0.7133 H   0  0  0  0  0  0
    3.8115    3.3160    2.1849 H   0  0  0  0  0  0
    2.9541    2.1412    0.2177 H   0  0  0  0  0  0
    1.0000   -0.7131    2.7657 H   0  0  0  0  0  0
    1.8484    0.4663    4.7389 H   0  0  0  0  0  0
    3.9482    0.9067    5.8906 H   0  0  0  0  0  0
    4.8150    2.0821    7.8497 H   0  0  0  0  0  0
    3.8925    5.8551    5.9866 H   0  0  0  0  0  0
    3.0178    4.6738    4.0357 H   0  0  0  0  0  0
   -2.3439   -3.9115   -1.8404 H   0  0  0  0  0  0
  1  2  1  0  0  0
  1  6  1  0  0  0
  1 28  1  0  0  0
  1 50  1  0  0  0
  2  3  1  0  0  0
  2  7  1  0  0  0
  2 29  1  0  0  0
  3  4  1  0  0  0
  3 30  1  0  0  0
  3 31  1  0  0  0
  4  5  1  0  0  0
  4 32  1  0  0  0
  4 33  1  0  0  0
  5  6  1  0  0  0
  5 34  1  0  0  0
  5 35  1  0  0  0
  6 36  1  0  0  0
  6 37  1  0  0  0
  7  8  2  0  0  0
  7  9  1  0  0  0
  9 10  1  0  0  0
  9 38  1  0  0  0
 10 11  1  0  0  0
 10 26  1  0  0  0
 10 39  1  0  0  0
 11 15  1  0  0  0
 11 40  1  0  0  0
 11 41  1  0  0  0
 12 13  2  0  0  0
 12 17  1  0  0  0
 12 18  1  0  0  0
 13 14  1  0  0  0
 13 42  1  0  0  0
 14 15  2  0  0  0
 14 43  1  0  0  0
 15 16  1  0  0  0
 16 17  2  0  0  0
 16 44  1  0  0  0
 17 45  1  0  0  0
 18 19  2  0  0  0
 18 23  1  0  0  0
 19 20  1  0  0  0
 19 46  1  0  0  0
 20 21  2  0  0  0
 20 47  1  0  0  0
 21 22  1  0  0  0
 21 24  1  0  0  0
 22 23  2  0  0  0
 22 48  1  0  0  0
 23 49  1  0  0  0
 24 25  3  0  0  0
 26 27  3  0  0  0
M  CHG  1   1   1
M  END
> <chembl_id>
CHEMBL3261919

> <chembl_pref_name>
None

> <i_m_ct_stereo_status>
1

> <s_m_source_file>
sdf/inactives_sanitized.sdf

> <i_m_source_file_index>
193

> <i_lp_mmshare_version>
49012

> <i_f3d_flags>
0

> <s_epik_input>
W0NIMl0xW0NIMl1bQ0gyXVtDSDJdW05IXVtDQEBIXTFDKD1PKVtOSF1bQ0BIXShDI04pW0NIMl1jKFtjSF1bY0hdMilbY0hdW2NIXWMyLWMzW2NIXVtjSF1jKEMjTilbY0hdW2NIXTM=

> <s_epik_cmdline>
J2VwaWtfcHl0aG9uJywgJy1waHQnLCAnMC41JywgJy1waCcsICc3LjUnLCAnLW50JywgJy1tYScsICcyMDAnLCAnLWltYWUnLCAnPGluZmlsZS5tYWU+JywgJy1vbWFlJywgJzxvdXRmaWxlLm1hZT4n

> <r_epik_Ionization_Penalty>
  0.5270

> <r_epik_Ionization_Penalty_Charging>
  0.5268

> <r_epik_Ionization_Penalty_Neutral>
  0.0002

> <r_epik_State_Penalty>
  0.5353

> <r_epik_Charging_Adjusted_Penalty>
1.06214808479859

> <i_epik_Tot_Q>
1

> <i_epik_Tot_abs_Q>
1

> <s_lp_Force_Field>
OPLS3e

> <r_lp_Energy>
40.740631

> <b_lp_Chiralities_Consistent>
1

> <s_lp_Variant>
sdf/inactives_sanitized.sdf:193-2

$$$$
sdf/inactives_sanitized.sdf:194
                    3D
 Schrodinger Suite 2020-1.
 24 23  0  0  1  0            999 V2000
   -0.5879    1.1264   -0.0163 C   0  0  0  0  0  0
   -1.9257    0.8807    0.0192 O   0  0  0  0  0  0
   -0.0680    2.2426   -0.0646 O   0  0  0  0  0  0
   -2.9587    1.8843    0.0038 C   0  0  0  0  0  0
    0.0882   -0.0867    0.0115 N   0  0  0  0  0  0
    3.1674    0.5202   -1.6378 O   0  0  0  0  0  0
    2.0768   -0.0088   -1.4329 C   0  0  0  0  0  0
    1.5490   -0.1975   -0.0066 C   0  0  0  0  0  0
   -2.9202    2.7149   -1.3032 C   0  0  0  0  0  0
   -2.8715    2.8038    1.2472 C   0  0  0  0  0  0
   -4.2742    1.0803    0.0570 C   0  0  0  0  0  0
   -0.4548   -0.9361    0.0682 H   0  0  0  0  0  0
    1.4498   -0.4096   -2.2300 H   0  0  0  0  0  0
    1.8215   -1.1975    0.3309 H   0  0  0  0  0  0
    2.0143    0.5121    0.6809 H   0  0  0  0  0  0
   -3.7828    3.3783   -1.3779 H   0  0  0  0  0  0
   -2.9272    2.0691   -2.1822 H   0  0  0  0  0  0
   -2.0294    3.3393   -1.3698 H   0  0  0  0  0  0
   -1.9781    3.4280    1.2378 H   0  0  0  0  0  0
   -2.8470    2.2212    2.1691 H   0  0  0  0  0  0
   -3.7297    3.4742    1.3065 H   0  0  0  0  0  0
   -5.1463    1.7357    0.0520 H   0  0  0  0  0  0
   -4.3316    0.4660    0.9570 H   0  0  0  0  0  0
   -4.3663    0.4065   -0.7962 H   0  0  0  0  0  0
  1  2  1  0  0  0
  1  3  2  0  0  0
  1  5  1  0  0  0
  2  4  1  0  0  0
  4  9  1  0  0  0
  4 10  1  0  0  0
  4 11  1  0  0  0
  5  8  1  0  0  0
  5 12  1  0  0  0
  6  7  2  0  0  0
  7  8  1  0  0  0
  7 13  1  0  0  0
  8 14  1  0  0  0
  8 15  1  0  0  0
  9 16  1  0  0  0
  9 17  1  0  0  0
  9 18  1  0  0  0
 10 19  1  0  0  0
 10 20  1  0  0  0
 10 21  1  0  0  0
 11 22  1  0  0  0
 11 23  1  0  0  0
 11 24  1  0  0  0
M  END
> <chembl_id>
CHEMBL94805

> <chembl_pref_name>
None

> <s_m_source_file>
sdf/inactives_sanitized.sdf

> <i_m_source_file_index>
194

> <i_lp_mmshare_version>
49012

> <i_m_ct_stereo_status>
1

> <i_f3d_flags>
0

> <s_epik_input>
W0NIM11DKFtDSDNdKShbQ0gzXSlPQyg9TylbTkhdW0NIMl1bQ0hdPU8=

> <s_epik_cmdline>
J2VwaWtfcHl0aG9uJywgJy1waHQnLCAnMC41JywgJy1waCcsICc3LjUnLCAnLW50JywgJy1tYScsICcyMDAnLCAnLWltYWUnLCAnPGluZmlsZS5tYWU+JywgJy1vbWFlJywgJzxvdXRmaWxlLm1hZT4n

> <r_lp_tautomer_probability>
1

> <r_epik_Ionization_Penalty>
  0.0011

> <r_epik_Ionization_Penalty_Charging>
  0.0000

> <r_epik_Ionization_Penalty_Neutral>
  0.0011

> <r_epik_State_Penalty>
 -0.0000

> <r_epik_Charging_Adjusted_Penalty>
0

> <i_epik_Tot_Q>
0

> <i_epik_Tot_abs_Q>
0

> <s_epik_Chemistry_Notes>
This compound has an ester and may undergo hydrolysis at high or low pH.

> <s_lp_Force_Field>
OPLS3e

> <r_lp_Energy>
-1.976663

> <b_lp_Chiralities_Consistent>
1

> <s_lp_Variant>
sdf/inactives_sanitized.sdf:194-1

$$$$
sdf/inactives_sanitized.sdf:195
                    3D
 Schrodinger Suite 2020-1.
 39 38  0  0  1  0            999 V2000
   -1.2634    1.7488   -0.9107 C   0  0  0  0  0  0
   -0.7482    1.2232    0.2675 N   0  0  0  0  0  0
   -1.7964    2.9708   -0.6409 O   0  0  0  0  0  0
   -1.2370    1.2141   -2.0210 O   0  0  0  0  0  0
   -2.4100    3.8456   -1.6063 C   0  0  0  0  0  0
   -0.7326   -1.8144    1.7309 O   0  0  0  0  0  0
   -0.3756   -0.6444    1.6026 C   0  0  0  0  0  0
   -0.0150   -0.0485    0.2626 C   0  0  2  0  0  0
   -3.6663    3.1963   -2.2380 C   0  0  0  0  0  0
   -1.4007    4.2788   -2.6984 C   0  0  0  0  0  0
   -2.8324    5.0823   -0.7871 C   0  0  0  0  0  0
    1.5232    0.1294    0.1705 C   0  0  0  0  0  0
    4.0320    1.2520   -2.6570 C   0  0  0  0  0  0
    3.5451    0.7191   -1.2982 C   0  0  0  0  0  0
    2.0108    0.6732   -1.1876 C   0  0  0  0  0  0
    5.5620    1.2766   -2.7751 C   0  0  0  0  0  0
   -0.6628    1.8258    1.0730 H   0  0  0  0  0  0
   -0.2635    0.0172    2.4629 H   0  0  0  0  0  0
   -0.3511   -0.7237   -0.5289 H   0  0  0  0  0  0
   -4.2075    3.9057   -2.8651 H   0  0  0  0  0  0
   -4.3569    2.8435   -1.4712 H   0  0  0  0  0  0
   -3.4175    2.3401   -2.8648 H   0  0  0  0  0  0
   -1.1014    3.4485   -3.3376 H   0  0  0  0  0  0
   -0.4918    4.6883   -2.2560 H   0  0  0  0  0  0
   -1.8234    5.0467   -3.3472 H   0  0  0  0  0  0
   -3.3147    5.8340   -1.4133 H   0  0  0  0  0  0
   -1.9743    5.5567   -0.3086 H   0  0  0  0  0  0
   -3.5337    4.8172    0.0055 H   0  0  0  0  0  0
    1.8702    0.8035    0.9568 H   0  0  0  0  0  0
    2.0095   -0.8324    0.3484 H   0  0  0  0  0  0
    3.6228    0.6367   -3.4595 H   0  0  0  0  0  0
    3.6447    2.2593   -2.8168 H   0  0  0  0  0  0
    3.9496   -0.2815   -1.1372 H   0  0  0  0  0  0
    3.9472    1.3438   -0.4989 H   0  0  0  0  0  0
    1.6159    1.6776   -1.3453 H   0  0  0  0  0  0
    1.6100    0.0528   -1.9909 H   0  0  0  0  0  0
    5.8708    1.6555   -3.7496 H   0  0  0  0  0  0
    5.9837    0.2774   -2.6605 H   0  0  0  0  0  0
    6.0079    1.9176   -2.0139 H   0  0  0  0  0  0
  1  2  1  0  0  0
  1  3  1  0  0  0
  1  4  2  0  0  0
  2  8  1  0  0  0
  2 17  1  0  0  0
  3  5  1  0  0  0
  5  9  1  0  0  0
  5 10  1  0  0  0
  5 11  1  0  0  0
  6  7  2  0  0  0
  7  8  1  0  0  0
  7 18  1  0  0  0
  8 12  1  0  0  0
  8 19  1  0  0  0
  9 20  1  0  0  0
  9 21  1  0  0  0
  9 22  1  0  0  0
 10 23  1  0  0  0
 10 24  1  0  0  0
 10 25  1  0  0  0
 11 26  1  0  0  0
 11 27  1  0  0  0
 11 28  1  0  0  0
 12 15  1  0  0  0
 12 29  1  0  0  0
 12 30  1  0  0  0
 13 14  1  0  0  0
 13 16  1  0  0  0
 13 31  1  0  0  0
 13 32  1  0  0  0
 14 15  1  0  0  0
 14 33  1  0  0  0
 14 34  1  0  0  0
 15 35  1  0  0  0
 15 36  1  0  0  0
 16 37  1  0  0  0
 16 38  1  0  0  0
 16 39  1  0  0  0
M  END
> <chembl_id>
CHEMBL540696

> <chembl_pref_name>
None

> <i_m_ct_stereo_status>
1

> <s_m_source_file>
sdf/inactives_sanitized.sdf

> <i_m_source_file_index>
195

> <i_lp_mmshare_version>
49012

> <i_f3d_flags>
0

> <s_epik_input>
W0NIM11DKFtDSDNdKShbQ0gzXSlPQyg9TylbTkhdW0NASF0oW0NIXT1PKVtDSDJdW0NIMl1bQ0gyXVtDSDJdW0NIM10=

> <s_epik_cmdline>
J2VwaWtfcHl0aG9uJywgJy1waHQnLCAnMC41JywgJy1waCcsICc3LjUnLCAnLW50JywgJy1tYScsICcyMDAnLCAnLWltYWUnLCAnPGluZmlsZS5tYWU+JywgJy1vbWFlJywgJzxvdXRmaWxlLm1hZT4n

> <r_lp_tautomer_probability>
1

> <r_epik_Ionization_Penalty>
  0.0003

> <r_epik_Ionization_Penalty_Charging>
  0.0000

> <r_epik_Ionization_Penalty_Neutral>
  0.0003

> <r_epik_State_Penalty>
 -0.0000

> <r_epik_Charging_Adjusted_Penalty>
0

> <i_epik_Tot_Q>
0

> <i_epik_Tot_abs_Q>
0

> <s_epik_Chemistry_Notes>
This compound has an ester and may undergo hydrolysis at high or low pH.

> <s_lp_Force_Field>
OPLS3e

> <r_lp_Energy>
11.746068

> <b_lp_Chiralities_Consistent>
1

> <s_lp_Variant>
sdf/inactives_sanitized.sdf:195-1

$$$$
sdf/inactives_sanitized.sdf:196
                    3D
 Schrodinger Suite 2020-1.
 64 66  0  0  1  0            999 V2000
    3.1281   -0.2301   -1.5757 C   0  0  0  0  0  0
    3.6534   -0.4536   -2.8087 O   0  0  0  0  0  0
    3.9643    0.4060   -0.7892 N   0  0  0  0  0  0
    5.1187    0.6191   -1.5366 N   0  0  0  0  0  0
    1.7716   -0.6968   -1.3014 C   0  0  0  0  0  0
    4.8921    0.0981   -2.7197 C   0  0  0  0  0  0
   -1.0590    0.3924   -0.4926 C   0  0  0  0  0  0
   -0.2669   -0.5733    0.1239 N   0  0  0  0  0  0
    1.2103   -0.4893    0.1137 C   0  0  1  0  0  0
    1.1173   -1.2502   -2.1894 O   0  0  0  0  0  0
   -2.3545    0.1228   -0.2223 O   0  0  0  0  0  0
   -0.6631    1.3555   -1.1537 O   0  0  0  0  0  0
    5.8012    0.0517   -3.9047 C   0  0  0  0  0  0
   -3.4178    0.9499   -0.6992 C   0  0  2  0  0  0
   -4.6373    0.7756    0.2338 C   0  0  0  0  0  0
   -4.3775    1.0803    1.7316 C   0  0  0  0  0  0
    1.8249   -1.5516    1.0647 C   0  0  0  0  0  0
    7.0885    0.5966   -3.8268 C   0  0  0  0  0  0
    5.3720   -0.5365   -5.1003 C   0  0  0  0  0  0
   -3.7578    0.5937   -2.1599 C   0  0  0  0  0  0
   -5.6422    0.8114    2.5807 C   0  0  0  0  0  0
   -3.9136    2.5361    1.9841 C   0  0  0  0  0  0
    1.3995   -1.3850    2.5389 C   0  0  0  0  0  0
    2.0679   -2.4080    3.4740 C   0  0  0  0  0  0
    1.6445   -2.2426    4.9399 C   0  0  0  0  0  0
    6.2197   -0.5797   -6.2044 C   0  0  0  0  0  0
    7.9363    0.5533   -4.9306 C   0  0  0  0  0  0
   -3.6060    2.7797    3.4759 C   0  0  0  0  0  0
   -5.3683    1.0169    4.0845 C   0  0  0  0  0  0
   -4.8137    2.4289    4.3714 C   0  0  0  0  0  0
    7.4982   -0.0348   -6.1146 C   0  0  0  0  0  0
   -0.6893   -1.0998    0.8745 H   0  0  0  0  0  0
    1.4965    0.4887    0.5080 H   0  0  0  0  0  0
   -3.1144    1.9975   -0.6668 H   0  0  0  0  0  0
   -5.4483    1.4132   -0.1225 H   0  0  0  0  0  0
   -5.0016   -0.2493    0.1434 H   0  0  0  0  0  0
   -3.5938    0.4124    2.0949 H   0  0  0  0  0  0
    1.5412   -2.5527    0.7321 H   0  0  0  0  0  0
    2.9149   -1.5086    1.0207 H   0  0  0  0  0  0
    7.4376    1.0550   -2.9126 H   0  0  0  0  0  0
    4.3823   -0.9623   -5.1822 H   0  0  0  0  0  0
   -4.5835    1.2025   -2.5296 H   0  0  0  0  0  0
   -4.0458   -0.4537   -2.2587 H   0  0  0  0  0  0
   -2.9075    0.7671   -2.8198 H   0  0  0  0  0  0
   -6.4632    1.4482    2.2463 H   0  0  0  0  0  0
   -5.9936   -0.2070    2.4089 H   0  0  0  0  0  0
   -3.0260    2.7612    1.3928 H   0  0  0  0  0  0
   -4.6703    3.2372    1.6277 H   0  0  0  0  0  0
    1.6475   -0.3767    2.8743 H   0  0  0  0  0  0
    0.3163   -1.4819    2.6248 H   0  0  0  0  0  0
    1.8254   -3.4194    3.1444 H   0  0  0  0  0  0
    3.1527   -2.3159    3.4038 H   0  0  0  0  0  0
    2.1352   -2.9829    5.5725 H   0  0  0  0  0  0
    0.5678   -2.3690    5.0576 H   0  0  0  0  0  0
    1.9098   -1.2552    5.3194 H   0  0  0  0  0  0
    5.8865   -1.0338   -7.1261 H   0  0  0  0  0  0
    8.9293    0.9737   -4.8687 H   0  0  0  0  0  0
   -2.7460    2.1772    3.7726 H   0  0  0  0  0  0
   -3.3173    3.8199    3.6317 H   0  0  0  0  0  0
   -6.2824    0.8538    4.6565 H   0  0  0  0  0  0
   -4.6544    0.2679    4.4306 H   0  0  0  0  0  0
   -4.5345    2.5129    5.4222 H   0  0  0  0  0  0
   -5.6044    3.1631    4.2090 H   0  0  0  0  0  0
    8.1555   -0.0682   -6.9712 H   0  0  0  0  0  0
  1  2  1  0  0  0
  1  3  2  0  0  0
  1  5  1  0  0  0
  2  6  1  0  0  0
  3  4  1  0  0  0
  4  6  2  0  0  0
  5  9  1  0  0  0
  5 10  2  0  0  0
  6 13  1  0  0  0
  7  8  1  0  0  0
  7 11  1  0  0  0
  7 12  2  0  0  0
  8  9  1  0  0  0
  8 32  1  0  0  0
  9 17  1  0  0  0
  9 33  1  0  0  0
 11 14  1  0  0  0
 13 18  2  0  0  0
 13 19  1  0  0  0
 14 15  1  0  0  0
 14 20  1  0  0  0
 14 34  1  0  0  0
 15 16  1  0  0  0
 15 35  1  0  0  0
 15 36  1  0  0  0
 16 21  1  0  0  0
 16 22  1  0  0  0
 16 37  1  0  0  0
 17 23  1  0  0  0
 17 38  1  0  0  0
 17 39  1  0  0  0
 18 27  1  0  0  0
 18 40  1  0  0  0
 19 26  2  0  0  0
 19 41  1  0  0  0
 20 42  1  0  0  0
 20 43  1  0  0  0
 20 44  1  0  0  0
 21 29  1  0  0  0
 21 45  1  0  0  0
 21 46  1  0  0  0
 22 28  1  0  0  0
 22 47  1  0  0  0
 22 48  1  0  0  0
 23 24  1  0  0  0
 23 49  1  0  0  0
 23 50  1  0  0  0
 24 25  1  0  0  0
 24 51  1  0  0  0
 24 52  1  0  0  0
 25 53  1  0  0  0
 25 54  1  0  0  0
 25 55  1  0  0  0
 26 31  1  0  0  0
 26 56  1  0  0  0
 27 31  2  0  0  0
 27 57  1  0  0  0
 28 30  1  0  0  0
 28 58  1  0  0  0
 28 59  1  0  0  0
 29 30  1  0  0  0
 29 60  1  0  0  0
 29 61  1  0  0  0
 30 62  1  0  0  0
 30 63  1  0  0  0
 31 64  1  0  0  0
M  END
> <chembl_id>
CHEMBL360745

> <chembl_pref_name>
None

> <i_m_ct_stereo_status>
1

> <s_m_source_file>
sdf/inactives_sanitized.sdf

> <i_m_source_file_index>
196

> <i_lp_mmshare_version>
49012

> <i_f3d_flags>
0

> <s_epik_input>
W2NIXTFbY0hdW2NIXVtjSF1bY0hdYzEtYyhubjIpb2MyQyg9TylbQ0BIXShbQ0gyXVtDSDJdW0NIMl1bQ0gzXSlbTkhdQyg9TylPW0NAQEhdKFtDSDNdKVtDSDJdW0NIXTNbQ0gyXVtDSDJdW0NIMl1bQ0gyXVtDSDJdMw==

> <s_epik_cmdline>
J2VwaWtfcHl0aG9uJywgJy1waHQnLCAnMC41JywgJy1waCcsICc3LjUnLCAnLW50JywgJy1tYScsICcyMDAnLCAnLWltYWUnLCAnPGluZmlsZS5tYWU+JywgJy1vbWFlJywgJzxvdXRmaWxlLm1hZT4n

> <r_lp_tautomer_probability>
1

> <r_epik_Ionization_Penalty>
  0.0000

> <r_epik_Ionization_Penalty_Charging>
  0.0000

> <r_epik_Ionization_Penalty_Neutral>
  0.0000

> <r_epik_State_Penalty>
 -0.0000

> <r_epik_Charging_Adjusted_Penalty>
0

> <i_epik_Tot_Q>
0

> <i_epik_Tot_abs_Q>
0

> <s_epik_Chemistry_Notes>
This compound has an ester and may undergo hydrolysis at high or low pH.

> <s_lp_Force_Field>
OPLS3e

> <r_lp_Energy>
32.588875

> <b_lp_Chiralities_Consistent>
1

> <s_lp_Variant>
sdf/inactives_sanitized.sdf:196-1

$$$$
sdf/inactives_sanitized.sdf:197
                    3D
 Schrodinger Suite 2020-1.
 36 37  0  0  1  0            999 V2000
   -2.6368   -0.2043   -0.6051 N   0  0  0  0  0  0
   -1.9636   -1.2650   -0.0734 C   0  0  0  0  0  0
   -0.5872   -1.1946    0.2023 C   0  0  0  0  0  0
    0.0678    0.0073   -0.0954 C   0  0  0  0  0  0
   -0.5813    1.0786   -0.6272 N   0  0  0  0  0  0
   -1.9082    0.9130   -0.8552 C   0  0  0  0  0  0
   -2.6199    2.0436   -1.4255 C   0  0  0  0  0  0
   -3.1868    2.9443   -1.8803 N   0  0  0  0  0  0
    1.5578    0.1819    0.1634 C   0  0  0  0  0  0
    2.3861    0.3242   -1.1281 C   0  0  0  0  0  0
    3.8886    0.4821   -0.8582 C   0  0  0  0  0  0
   -2.8157   -2.5160    0.2002 C   0  0  0  0  0  0
   -2.0607   -3.6744    0.9094 C   0  0  0  0  0  0
   -2.9641   -4.8960    1.1690 C   0  0  0  0  0  0
   -3.6505   -5.3870   -0.1172 C   0  0  0  0  0  0
   -4.4304   -4.2538   -0.8054 C   0  0  0  0  0  0
   -3.5504   -3.0162   -1.0741 C   0  0  0  0  0  0
   -0.0400   -2.0242    0.6239 H   0  0  0  0  0  0
    1.6982    1.0583    0.7984 H   0  0  0  0  0  0
    1.9273   -0.6665    0.7420 H   0  0  0  0  0  0
    2.2279   -0.5495   -1.7622 H   0  0  0  0  0  0
    2.0370    1.1851   -1.7003 H   0  0  0  0  0  0
    4.4430    0.5795   -1.7917 H   0  0  0  0  0  0
    4.2883   -0.3812   -0.3252 H   0  0  0  0  0  0
    4.0920    1.3700   -0.2588 H   0  0  0  0  0  0
   -3.5721   -2.1555    0.9008 H   0  0  0  0  0  0
   -1.2111   -3.9984    0.3058 H   0  0  0  0  0  0
   -1.6846   -3.3372    1.8767 H   0  0  0  0  0  0
   -2.3775   -5.7045    1.6071 H   0  0  0  0  0  0
   -3.7232   -4.6370    1.9089 H   0  0  0  0  0  0
   -2.9007   -5.7837   -0.8035 H   0  0  0  0  0  0
   -4.3223   -6.2149    0.1125 H   0  0  0  0  0  0
   -4.8578   -4.6142   -1.7418 H   0  0  0  0  0  0
   -5.2757   -3.9663   -0.1780 H   0  0  0  0  0  0
   -4.2100   -2.2380   -1.4608 H   0  0  0  0  0  0
   -2.8251   -3.2578   -1.8528 H   0  0  0  0  0  0
  1  6  2  0  0  0
  1  2  1  0  0  0
  2  3  2  0  0  0
  2 12  1  0  0  0
  3  4  1  0  0  0
  3 18  1  0  0  0
  4  9  1  0  0  0
  4  5  2  0  0  0
  5  6  1  0  0  0
  6  7  1  0  0  0
  7  8  3  0  0  0
  9 10  1  0  0  0
  9 19  1  0  0  0
  9 20  1  0  0  0
 10 11  1  0  0  0
 10 21  1  0  0  0
 10 22  1  0  0  0
 11 23  1  0  0  0
 11 24  1  0  0  0
 11 25  1  0  0  0
 12 13  1  0  0  0
 12 17  1  0  0  0
 12 26  1  0  0  0
 13 14  1  0  0  0
 13 27  1  0  0  0
 13 28  1  0  0  0
 14 15  1  0  0  0
 14 29  1  0  0  0
 14 30  1  0  0  0
 15 16  1  0  0  0
 15 31  1  0  0  0
 15 32  1  0  0  0
 16 17  1  0  0  0
 16 33  1  0  0  0
 16 34  1  0  0  0
 17 35  1  0  0  0
 17 36  1  0  0  0
M  END
> <chembl_id>
CHEMBL1085896

> <chembl_pref_name>
None

> <s_m_source_file>
sdf/inactives_sanitized.sdf

> <i_m_source_file_index>
197

> <i_lp_mmshare_version>
49012

> <i_m_ct_stereo_status>
1

> <i_f3d_flags>
0

> <s_epik_input>
W0NIM11bQ0gyXVtDSDJdYyhbY0hdMSluYyhDI04pbmMxW0NIXTJbQ0gyXVtDSDJdW0NIMl1bQ0gyXVtDSDJdMg==

> <s_epik_cmdline>
J2VwaWtfcHl0aG9uJywgJy1waHQnLCAnMC41JywgJy1waCcsICc3LjUnLCAnLW50JywgJy1tYScsICcyMDAnLCAnLWltYWUnLCAnPGluZmlsZS5tYWU+JywgJy1vbWFlJywgJzxvdXRmaWxlLm1hZT4n

> <r_lp_tautomer_probability>
1

> <r_epik_Ionization_Penalty>
  0.0000

> <r_epik_Ionization_Penalty_Charging>
  0.0000

> <r_epik_Ionization_Penalty_Neutral>
  0.0000

> <r_epik_State_Penalty>
 -0.0000

> <r_epik_Charging_Adjusted_Penalty>
0

> <i_epik_Tot_Q>
0

> <i_epik_Tot_abs_Q>
0

> <s_epik_Chemistry_Notes>
This compound contains an electron-poor aromatic ring that is susceptible to covalent hydrolysis at low pH, typically resulting in measured values for nitrogen ring protonation that are around two units higher than predicted values.

> <s_lp_Force_Field>
OPLS3e

> <r_lp_Energy>
20.251682

> <b_lp_Chiralities_Consistent>
1

> <s_lp_Variant>
sdf/inactives_sanitized.sdf:197-1

$$$$
sdf/inactives_sanitized.sdf:198
                    3D
 Schrodinger Suite 2020-1.
 51 53  0  0  1  0            999 V2000
    3.4466   -0.2582   -4.0499 C   0  0  0  0  0  0
    4.0141   -0.3694   -2.6457 C   0  0  0  0  0  0
    4.4893    0.7221   -3.5817 C   0  0  0  0  0  0
    0.4616    2.1815   -3.9388 C   0  0  0  0  0  0
    1.2057    3.3502   -3.7982 C   0  0  0  0  0  0
    1.3876    3.9289   -2.5445 C   0  0  0  0  0  0
    0.8213    3.3332   -1.4208 C   0  0  0  0  0  0
    0.0788    2.1554   -1.5496 C   0  0  0  0  0  0
   -0.0998    1.5820   -2.8150 C   0  0  0  0  0  0
   -0.5208    1.5047   -0.2964 C   0  0  2  0  0  0
   -0.1112    0.1047   -0.1312 N   0  0  2  0  0  0
    1.3393   -0.0943    0.1122 C   0  0  2  0  0  0
    2.0356   -0.5979   -1.1725 C   0  0  0  0  0  0
    3.1785    0.0208   -1.5150 N   0  0  0  0  0  0
    1.5380   -1.5203   -1.8210 O   0  0  0  0  0  0
    4.9058   -1.5123   -2.3834 C   0  0  0  0  0  0
    5.6061   -2.4098   -2.1766 N   0  0  0  0  0  0
    1.6183   -1.0083    1.3239 C   0  0  0  0  0  0
   -2.0645    1.6267   -0.2311 C   0  0  0  0  0  0
   -2.5436    1.1400    0.9151 F   0  0  0  0  0  0
   -2.4473    2.9025   -0.2998 F   0  0  0  0  0  0
   -2.6729    0.9742   -1.2236 F   0  0  0  0  0  0
    1.5797   -0.0736    2.9654 S   0  0  0  0  0  0
    1.8382   -1.4291    4.2578 C   0  0  0  0  0  0
    2.7433    0.8189    3.0007 O   0  0  0  0  0  0
    0.2334    0.4803    3.1447 O   0  0  0  0  0  0
    1.9348   -0.8067    5.6595 C   0  0  0  0  0  0
    1.3669   -1.5422    6.8462 C   0  0  0  0  0  0
    0.6981   -0.2772    6.3400 C   0  0  0  0  0  0
    2.4237    0.0924   -4.1847 H   0  0  0  0  0  0
    3.7294   -1.0054   -4.7920 H   0  0  0  0  0  0
    5.4945    0.6552   -3.9992 H   0  0  0  0  0  0
    4.1824    1.7523   -3.3973 H   0  0  0  0  0  0
    0.3249    1.7388   -4.9145 H   0  0  0  0  0  0
    1.6448    3.8130   -4.6698 H   0  0  0  0  0  0
    1.9653    4.8359   -2.4444 H   0  0  0  0  0  0
    0.9666    3.7855   -0.4504 H   0  0  0  0  0  0
   -0.6681    0.6704   -2.9285 H   0  0  0  0  0  0
   -0.1412    2.0379    0.5777 H   0  0  0  0  0  0
   -0.3430   -0.3618   -0.9973 H   0  0  0  0  0  0
    1.8273    0.8543    0.3525 H   0  0  0  0  0  0
    3.5518    0.7285   -0.8991 H   0  0  0  0  0  0
    0.8710   -1.8000    1.3895 H   0  0  0  0  0  0
    2.5810   -1.5172    1.2538 H   0  0  0  0  0  0
    1.0026   -2.1237    4.1668 H   0  0  0  0  0  0
    2.7538   -1.9588    3.9961 H   0  0  0  0  0  0
    2.8710   -0.2673    5.8092 H   0  0  0  0  0  0
    0.8766   -2.5026    6.6850 H   0  0  0  0  0  0
    1.9203   -1.5113    7.7851 H   0  0  0  0  0  0
   -0.2591   -0.3532    5.8232 H   0  0  0  0  0  0
    0.7837    0.6409    6.9217 H   0  0  0  0  0  0
  1  3  1  0  0  0
  1  2  1  0  0  0
  1 30  1  0  0  0
  1 31  1  0  0  0
  2 14  1  0  0  0
  2 16  1  0  0  0
  2  3  1  0  0  0
  3 32  1  0  0  0
  3 33  1  0  0  0
  4  5  2  0  0  0
  4  9  1  0  0  0
  4 34  1  0  0  0
  5  6  1  0  0  0
  5 35  1  0  0  0
  6  7  2  0  0  0
  6 36  1  0  0  0
  7  8  1  0  0  0
  7 37  1  0  0  0
  8  9  2  0  0  0
  8 10  1  0  0  0
  9 38  1  0  0  0
 10 11  1  0  0  0
 10 19  1  0  0  0
 10 39  1  0  0  0
 11 12  1  0  0  0
 11 40  1  0  0  0
 12 13  1  0  0  0
 12 18  1  0  0  0
 12 41  1  0  0  0
 13 14  1  0  0  0
 13 15  2  0  0  0
 14 42  1  0  0  0
 16 17  3  0  0  0
 18 23  1  0  0  0
 18 43  1  0  0  0
 18 44  1  0  0  0
 19 20  1  0  0  0
 19 21  1  0  0  0
 19 22  1  0  0  0
 23 24  1  0  0  0
 23 25  2  0  0  0
 23 26  2  0  0  0
 24 27  1  0  0  0
 24 45  1  0  0  0
 24 46  1  0  0  0
 27 28  1  0  0  0
 27 29  1  0  0  0
 27 47  1  0  0  0
 28 29  1  0  0  0
 28 48  1  0  0  0
 28 49  1  0  0  0
 29 50  1  0  0  0
 29 51  1  0  0  0
M  END
> <chembl_id>
CHEMBL249712

> <chembl_pref_name>
None

> <i_m_ct_stereo_status>
1

> <s_m_source_file>
sdf/inactives_sanitized.sdf

> <i_m_source_file_index>
198

> <i_lp_mmshare_version>
49012

> <i_f3d_flags>
0

> <s_epik_input>
W0NIMl0xW0NIMl1bQ0hdMVtDSDJdUyg9TykoPU8pW0NIMl1bQ0BASF0oQyg9TylbTkhdQzIoQyNOKVtDSDJdW0NIMl0yKVtOSF1bQ0BIXShDKEYpKEYpRiljM1tjSF1bY0hdW2NIXVtjSF1bY0hdMw==

> <s_epik_cmdline>
J2VwaWtfcHl0aG9uJywgJy1waHQnLCAnMC41JywgJy1waCcsICc3LjUnLCAnLW50JywgJy1tYScsICcyMDAnLCAnLWltYWUnLCAnPGluZmlsZS5tYWU+JywgJy1vbWFlJywgJzxvdXRmaWxlLm1hZT4n

> <r_lp_tautomer_probability>
1

> <r_epik_Ionization_Penalty>
  0.0001

> <r_epik_Ionization_Penalty_Charging>
  0.0000

> <r_epik_Ionization_Penalty_Neutral>
  0.0001

> <r_epik_State_Penalty>
 -0.0000

> <r_epik_Charging_Adjusted_Penalty>
0

> <i_epik_Tot_Q>
0

> <i_epik_Tot_abs_Q>
0

> <s_lp_Force_Field>
OPLS3e

> <r_lp_Energy>
25.70656

> <b_lp_Chiralities_Consistent>
1

> <s_lp_Variant>
sdf/inactives_sanitized.sdf:198-1

$$$$
sdf/inactives_sanitized.sdf:199
                    3D
 Schrodinger Suite 2020-1.
 40 42  0  0  1  0            999 V2000
   -2.0235    1.0670   -0.3084 C   0  0  0  0  0  0
   -2.7232   -0.1044    0.0243 C   0  0  0  0  0  0
   -1.9937   -1.2589    0.3438 C   0  0  0  0  0  0
   -0.6019   -1.2509    0.3251 C   0  0  0  0  0  0
    0.1217   -0.0964   -0.0111 C   0  0  0  0  0  0
   -0.6216    1.0548   -0.3236 C   0  0  0  0  0  0
    1.6279   -0.0936   -0.0364 C   0  0  0  0  0  0
    2.2417    1.0304   -0.5190 N   0  0  0  0  0  0
    3.6197   -1.2376    0.4038 C   0  0  0  0  0  0
    2.2610   -1.2152    0.4216 N   0  0  0  0  0  0
    4.2409   -2.4546    0.9037 C   0  0  0  0  0  0
    4.7354   -3.4225    1.3013 N   0  0  0  0  0  0
   -2.7869    2.3501   -0.6577 C   0  0  0  0  0  0
   -3.5823    2.1308   -1.7054 F   0  0  0  0  0  0
   -3.5394    2.7215    0.3788 F   0  0  0  0  0  0
   -1.9793    3.3677   -0.9635 F   0  0  0  0  0  0
   -4.1066   -0.0535    0.0233 O   0  0  0  0  0  0
    4.5049    1.9041   -0.9346 N   0  0  0  0  0  0
    5.7373    1.3202   -0.7205 C   0  0  0  0  0  0
    5.6885    0.1138   -0.2108 N   0  0  0  0  0  0
    4.3468   -0.1346   -0.0761 C   0  0  0  0  0  0
    3.5786    0.9664   -0.5219 C   0  0  0  0  0  0
   -4.8595   -1.2448    0.2312 C   0  0  0  0  0  0
   -6.3454   -0.9218    0.0485 C   0  0  0  0  0  0
    4.2563    3.2267   -1.4961 C   0  0  0  0  0  0
    3.6696    3.1214   -2.9125 C   0  0  0  0  0  0
   -2.4893   -2.1795    0.6113 H   0  0  0  0  0  0
   -0.0912   -2.1692    0.5757 H   0  0  0  0  0  0
   -0.1004    1.9641   -0.5833 H   0  0  0  0  0  0
    6.6374    1.8616   -0.9738 H   0  0  0  0  0  0
   -4.5665   -2.0145   -0.4852 H   0  0  0  0  0  0
   -4.6870   -1.6324    1.2366 H   0  0  0  0  0  0
   -6.9585   -1.8123    0.1881 H   0  0  0  0  0  0
   -6.5429   -0.5350   -0.9518 H   0  0  0  0  0  0
   -6.6761   -0.1725    0.7685 H   0  0  0  0  0  0
    3.5766    3.7594   -0.8295 H   0  0  0  0  0  0
    5.1937    3.7848   -1.5142 H   0  0  0  0  0  0
    3.5045    4.1125   -3.3356 H   0  0  0  0  0  0
    2.7106    2.6020   -2.9137 H   0  0  0  0  0  0
    4.3426    2.5854   -3.5829 H   0  0  0  0  0  0
  1  6  2  0  0  0
  1 13  1  0  0  0
  1  2  1  0  0  0
  2 17  1  0  0  0
  2  3  2  0  0  0
  3  4  1  0  0  0
  3 27  1  0  0  0
  4  5  2  0  0  0
  4 28  1  0  0  0
  5  7  1  0  0  0
  5  6  1  0  0  0
  6 29  1  0  0  0
  7  8  2  0  0  0
  7 10  1  0  0  0
  8 22  1  0  0  0
  9 21  1  0  0  0
  9 10  2  0  0  0
  9 11  1  0  0  0
 11 12  3  0  0  0
 13 14  1  0  0  0
 13 15  1  0  0  0
 13 16  1  0  0  0
 17 23  1  0  0  0
 18 19  1  0  0  0
 18 22  1  0  0  0
 18 25  1  0  0  0
 19 20  2  0  0  0
 19 30  1  0  0  0
 20 21  1  0  0  0
 21 22  2  0  0  0
 23 24  1  0  0  0
 23 31  1  0  0  0
 23 32  1  0  0  0
 24 33  1  0  0  0
 24 34  1  0  0  0
 24 35  1  0  0  0
 25 26  1  0  0  0
 25 36  1  0  0  0
 25 37  1  0  0  0
 26 38  1  0  0  0
 26 39  1  0  0  0
 26 40  1  0  0  0
M  END
> <chembl_id>
CHEMBL1209532

> <chembl_pref_name>
None

> <s_m_source_file>
sdf/inactives_sanitized.sdf

> <i_m_source_file_index>
199

> <i_lp_mmshare_version>
49012

> <i_m_ct_stereo_status>
1

> <i_f3d_flags>
0

> <s_epik_input>
RkMoRikoRiljMWMoT1tDSDJdW0NIM10pW2NIXVtjSF1jKFtjSF0xKS1jKG5jMkMjTiluYyhjMjMpbihbY0hdbjMpW0NIMl1bQ0gzXQ==

> <s_epik_cmdline>
J2VwaWtfcHl0aG9uJywgJy1waHQnLCAnMC41JywgJy1waCcsICc3LjUnLCAnLW50JywgJy1tYScsICcyMDAnLCAnLWltYWUnLCAnPGluZmlsZS5tYWU+JywgJy1vbWFlJywgJzxvdXRmaWxlLm1hZT4n

> <r_lp_tautomer_probability>
1

> <r_epik_Ionization_Penalty>
  0.0000

> <r_epik_Ionization_Penalty_Charging>
  0.0000

> <r_epik_Ionization_Penalty_Neutral>
  0.0000

> <r_epik_State_Penalty>
 -0.0000

> <r_epik_Charging_Adjusted_Penalty>
0

> <i_epik_Tot_Q>
0

> <i_epik_Tot_abs_Q>
0

> <s_lp_Force_Field>
OPLS3e

> <r_lp_Energy>
31.646378

> <b_lp_Chiralities_Consistent>
1

> <s_lp_Variant>
sdf/inactives_sanitized.sdf:199-1

$$$$
sdf/inactives_sanitized.sdf:200
                    3D
 Schrodinger Suite 2020-1.
 46 47  0  0  1  0            999 V2000
   -2.8356    0.3501    0.8642 C   0  0  0  0  0  0
   -4.2222    0.2540    0.9909 C   0  0  0  0  0  0
   -4.7938   -0.8875    1.5527 C   0  0  0  0  0  0
   -3.9787   -1.9308    1.9898 C   0  0  0  0  0  0
   -2.5928   -1.8350    1.8616 C   0  0  0  0  0  0
   -2.0087   -0.6985    1.2901 C   0  0  0  0  0  0
   -0.4848   -0.6176    1.1599 C   0  0  0  0  0  0
    0.0150   -0.0312   -0.1888 C   0  0  2  0  0  0
   -0.5568   -0.7349   -1.3416 N   0  0  0  0  0  0
    1.5538   -0.0486   -0.2420 C   0  0  0  0  0  0
    2.1435   -1.0879   -0.5400 O   0  0  0  0  0  0
    2.1691    1.1005    0.0776 N   0  0  0  0  0  0
    3.6157    1.2883    0.0341 C   0  0  0  0  0  0
    4.1658    1.1942   -1.3302 C   0  0  0  0  0  0
    4.5980    1.1204   -2.4010 N   0  0  0  0  0  0
   -0.5850   -0.2622   -2.6008 C   0  0  0  0  0  0
   -0.1366    0.8445   -2.9078 O   0  0  0  0  0  0
   -1.2202   -1.1730   -3.6723 C   0  0  0  0  0  0
   -5.2292    1.5483    0.4526 Cl  0  0  0  0  0  0
   -0.1556   -1.5117   -4.7459 C   0  0  0  0  0  0
   -0.7856   -2.4180   -5.8250 C   0  0  0  0  0  0
   -2.0495   -1.7864   -6.4472 C   0  0  0  0  0  0
   -3.0742   -1.3500   -5.3779 C   0  0  0  0  0  0
   -2.4384   -0.4480   -4.2984 C   0  0  0  0  0  0
   -2.4112    1.2441    0.4328 H   0  0  0  0  0  0
   -5.8667   -0.9651    1.6532 H   0  0  0  0  0  0
   -4.4207   -2.8135    2.4280 H   0  0  0  0  0  0
   -1.9748   -2.6513    2.2062 H   0  0  0  0  0  0
   -0.1034   -0.0363    2.0011 H   0  0  0  0  0  0
   -0.0802   -1.6264    1.2701 H   0  0  0  0  0  0
   -0.3017    1.0117   -0.2491 H   0  0  0  0  0  0
   -0.9389   -1.6496   -1.1499 H   0  0  0  0  0  0
    1.6102    1.9151    0.2868 H   0  0  0  0  0  0
    3.8560    2.2765    0.4260 H   0  0  0  0  0  0
    4.1213    0.5599    0.6705 H   0  0  0  0  0  0
   -1.5444   -2.0825   -3.1608 H   0  0  0  0  0  0
    0.1894   -0.6166   -5.2682 H   0  0  0  0  0  0
    0.6798   -2.0701   -4.3194 H   0  0  0  0  0  0
   -0.0547   -2.6276   -6.6071 H   0  0  0  0  0  0
   -1.0423   -3.3833   -5.3856 H   0  0  0  0  0  0
   -1.7615   -0.9188   -7.0431 H   0  0  0  0  0  0
   -2.5129   -2.4892   -7.1407 H   0  0  0  0  0  0
   -3.9053   -0.8284   -5.8545 H   0  0  0  0  0  0
   -3.5043   -2.2351   -4.9062 H   0  0  0  0  0  0
   -2.1416    0.4703   -4.8102 H   0  0  0  0  0  0
   -3.2155   -0.2566   -3.5560 H   0  0  0  0  0  0
  1  6  2  0  0  0
  1  2  1  0  0  0
  1 25  1  0  0  0
  2 19  1  0  0  0
  2  3  2  0  0  0
  3  4  1  0  0  0
  3 26  1  0  0  0
  4  5  2  0  0  0
  4 27  1  0  0  0
  5  6  1  0  0  0
  5 28  1  0  0  0
  6  7  1  0  0  0
  7  8  1  0  0  0
  7 29  1  0  0  0
  7 30  1  0  0  0
  8  9  1  0  0  0
  8 10  1  0  0  0
  8 31  1  0  0  0
  9 16  1  0  0  0
  9 32  1  0  0  0
 10 12  1  0  0  0
 10 11  2  0  0  0
 12 13  1  0  0  0
 12 33  1  0  0  0
 13 14  1  0  0  0
 13 34  1  0  0  0
 13 35  1  0  0  0
 14 15  3  0  0  0
 16 17  2  0  0  0
 16 18  1  0  0  0
 18 20  1  0  0  0
 18 24  1  0  0  0
 18 36  1  0  0  0
 20 21  1  0  0  0
 20 37  1  0  0  0
 20 38  1  0  0  0
 21 22  1  0  0  0
 21 39  1  0  0  0
 21 40  1  0  0  0
 22 23  1  0  0  0
 22 41  1  0  0  0
 22 42  1  0  0  0
 23 24  1  0  0  0
 23 43  1  0  0  0
 23 44  1  0  0  0
 24 45  1  0  0  0
 24 46  1  0  0  0
M  END
> <chembl_id>
CHEMBL557920

> <chembl_pref_name>
None

> <i_m_ct_stereo_status>
1

> <s_m_source_file>
sdf/inactives_sanitized.sdf

> <i_m_source_file_index>
200

> <i_lp_mmshare_version>
49012

> <i_f3d_flags>
0

> <s_epik_input>
W2NIXTFbY0hdW2NIXWMoW2NIXWMxQ2wpW0NIMl1bQ0BASF0oQyg9TylbTkhdW0NIMl1DI04pW05IXUMoPU8pW0NIXTJbQ0gyXVtDSDJdW0NIMl1bQ0gyXVtDSDJdMg==

> <s_epik_cmdline>
J2VwaWtfcHl0aG9uJywgJy1waHQnLCAnMC41JywgJy1waCcsICc3LjUnLCAnLW50JywgJy1tYScsICcyMDAnLCAnLWltYWUnLCAnPGluZmlsZS5tYWU+JywgJy1vbWFlJywgJzxvdXRmaWxlLm1hZT4n

> <r_lp_tautomer_probability>
1

> <r_epik_Ionization_Penalty>
  0.0000

> <r_epik_Ionization_Penalty_Charging>
  0.0000

> <r_epik_Ionization_Penalty_Neutral>
  0.0000

> <r_epik_State_Penalty>
 -0.0000

> <r_epik_Charging_Adjusted_Penalty>
0

> <i_epik_Tot_Q>
0

> <i_epik_Tot_abs_Q>
0

> <s_lp_Force_Field>
OPLS3e

> <r_lp_Energy>
22.676476

> <b_lp_Chiralities_Consistent>
1

> <s_lp_Variant>
sdf/inactives_sanitized.sdf:200-1

$$$$
sdf/inactives_sanitized.sdf:201
                    3D
 Schrodinger Suite 2020-1.
 61 65  0  0  1  0            999 V2000
   -3.3008    2.8855   -2.2445 C   0  0  1  0  0  0
   -4.4905    3.0637   -1.3772 N   0  0  0  0  0  0
   -3.2759    4.5243   -3.1878 S   0  0  0  0  0  0
   -2.4263    2.8144   -0.9751 C   0  0  1  0  0  0
   -3.7657    2.9339   -0.1905 C   0  0  0  0  0  0
   -1.7326    1.5418   -0.7809 N   0  0  0  0  0  0
   -0.8451    1.3007    0.1998 C   0  0  0  0  0  0
   -4.6710    5.3013   -2.1917 C   0  0  0  0  0  0
   -5.4789    4.0904   -1.6952 C   0  0  0  0  0  0
    1.8793   -0.2951   -1.0550 C   0  0  0  0  0  0
   -0.2421   -0.1164    0.2466 C   0  0  1  0  0  0
    1.2257   -0.0660    0.1487 N   0  0  0  0  0  0
   -2.0260    5.2540   -2.9503 O   0  0  0  0  0  0
   -3.7416    4.2956   -4.5596 O   0  0  0  0  0  0
   -4.0795    2.9976    0.9965 O   0  0  0  0  0  0
   -0.7195   -0.9343    1.4758 C   0  0  0  0  0  0
   -0.5254    2.1261    1.0570 O   0  0  0  0  0  0
    0.2152   -4.5548    0.5931 C   0  0  0  0  0  0
   -0.0699   -2.3164    1.5324 C   0  0  0  0  0  0
    1.3526   -0.4969   -2.1524 O   0  0  0  0  0  0
   -0.4139   -3.2858    0.5882 C   0  0  0  0  0  0
    3.2099   -0.3268   -0.8236 O   0  0  0  0  0  0
    1.1996   -4.8389    1.5883 C   0  0  0  0  0  0
    1.5241   -3.8410    2.5392 C   0  0  0  0  0  0
    0.8935   -2.6004    2.5008 C   0  0  0  0  0  0
    4.1126   -0.9344   -1.7471 C   0  0  0  0  0  0
    4.0233   -2.4544   -1.6683 C   0  0  0  0  0  0
   -0.1028   -5.5486   -0.3657 C   0  0  0  0  0  0
    1.8259   -6.1104    1.5951 C   0  0  0  0  0  0
    3.4589   -3.1765   -2.7225 C   0  0  0  0  0  0
    4.4857   -3.1186   -0.5292 C   0  0  0  0  0  0
    0.5332   -6.7869   -0.3325 C   0  0  0  0  0  0
    1.4873   -7.0659    0.6402 C   0  0  0  0  0  0
    4.3825   -4.5045   -0.4443 C   0  0  0  0  0  0
    3.3540   -4.5624   -2.6356 C   0  0  0  0  0  0
    3.8169   -5.2198   -1.4977 C   0  0  0  0  0  0
   -3.3373    2.0512   -2.9471 H   0  0  0  0  0  0
   -1.7085    3.6247   -0.8287 H   0  0  0  0  0  0
   -1.9566    0.8003   -1.4287 H   0  0  0  0  0  0
   -4.2009    5.7685   -1.3254 H   0  0  0  0  0  0
   -5.1872    6.0597   -2.7795 H   0  0  0  0  0  0
   -6.1068    3.6849   -2.4893 H   0  0  0  0  0  0
   -6.0859    4.3091   -0.8155 H   0  0  0  0  0  0
   -0.6369   -0.6736   -0.6081 H   0  0  0  0  0  0
    1.7636    0.1059    0.9854 H   0  0  0  0  0  0
   -0.4979   -0.3927    2.3979 H   0  0  0  0  0  0
   -1.8041   -1.0565    1.4552 H   0  0  0  0  0  0
   -1.1543   -3.0691   -0.1686 H   0  0  0  0  0  0
    2.2705   -4.0454    3.2934 H   0  0  0  0  0  0
    1.1671   -1.8502    3.2283 H   0  0  0  0  0  0
    3.9295   -0.5861   -2.7654 H   0  0  0  0  0  0
    5.1298   -0.6316   -1.4971 H   0  0  0  0  0  0
   -0.8428   -5.3401   -1.1249 H   0  0  0  0  0  0
    2.5717   -6.3344    2.3440 H   0  0  0  0  0  0
    3.0916   -2.6662   -3.6011 H   0  0  0  0  0  0
    4.9156   -2.5621    0.2911 H   0  0  0  0  0  0
    0.2839   -7.5374   -1.0682 H   0  0  0  0  0  0
    1.9721   -8.0310    0.6524 H   0  0  0  0  0  0
    4.7331   -5.0220    0.4366 H   0  0  0  0  0  0
    2.9125   -5.1250   -3.4450 H   0  0  0  0  0  0
    3.7318   -6.2943   -1.4292 H   0  0  0  0  0  0
  1  2  1  0  0  0
  1  3  1  0  0  0
  1  4  1  0  0  0
  1 37  1  0  0  0
  2  9  1  0  0  0
  2  5  1  0  0  0
  3  8  1  0  0  0
  3 13  2  0  0  0
  3 14  2  0  0  0
  4  5  1  0  0  0
  4  6  1  0  0  0
  4 38  1  0  0  0
  5 15  2  0  0  0
  6  7  1  0  0  0
  6 39  1  0  0  0
  7 11  1  0  0  0
  7 17  2  0  0  0
  8  9  1  0  0  0
  8 40  1  0  0  0
  8 41  1  0  0  0
  9 42  1  0  0  0
  9 43  1  0  0  0
 10 12  1  0  0  0
 10 20  2  0  0  0
 10 22  1  0  0  0
 11 12  1  0  0  0
 11 16  1  0  0  0
 11 44  1  0  0  0
 12 45  1  0  0  0
 16 19  1  0  0  0
 16 46  1  0  0  0
 16 47  1  0  0  0
 18 21  2  0  0  0
 18 28  1  0  0  0
 18 23  1  0  0  0
 19 21  1  0  0  0
 19 25  2  0  0  0
 21 48  1  0  0  0
 22 26  1  0  0  0
 23 24  2  0  0  0
 23 29  1  0  0  0
 24 25  1  0  0  0
 24 49  1  0  0  0
 25 50  1  0  0  0
 26 27  1  0  0  0
 26 51  1  0  0  0
 26 52  1  0  0  0
 27 30  2  0  0  0
 27 31  1  0  0  0
 28 32  2  0  0  0
 28 53  1  0  0  0
 29 33  2  0  0  0
 29 54  1  0  0  0
 30 35  1  0  0  0
 30 55  1  0  0  0
 31 34  2  0  0  0
 31 56  1  0  0  0
 32 33  1  0  0  0
 32 57  1  0  0  0
 33 58  1  0  0  0
 34 36  1  0  0  0
 34 59  1  0  0  0
 35 36  2  0  0  0
 35 60  1  0  0  0
 36 61  1  0  0  0
M  END
> <chembl_id>
CHEMBL323638

> <chembl_pref_name>
None

> <i_m_ct_stereo_status>
1

> <s_m_source_file>
sdf/inactives_sanitized.sdf

> <i_m_source_file_index>
201

> <i_lp_mmshare_version>
49012

> <i_f3d_flags>
0

> <s_epik_input>
Tz1TMSg9TylbQ0gyXVtDSDJdTihbQ0BASF0xMilDKD1PKVtDQEhdMltOSF1DKD1PKVtDQEhdKFtDSDJdYyhbY0hdMylbY0hdW2NIXWMoYzM0KVtjSF1bY0hdW2NIXVtjSF00KVtOSF1DKD1PKU9bQ0gyXWM1W2NIXVtjSF1bY0hdW2NIXVtjSF01

> <s_epik_cmdline>
J2VwaWtfcHl0aG9uJywgJy1waHQnLCAnMC41JywgJy1waCcsICc3LjUnLCAnLW50JywgJy1tYScsICcyMDAnLCAnLWltYWUnLCAnPGluZmlsZS5tYWU+JywgJy1vbWFlJywgJzxvdXRmaWxlLm1hZT4n

> <r_lp_tautomer_probability>
1

> <r_epik_Ionization_Penalty>
  0.0000

> <r_epik_Ionization_Penalty_Charging>
  0.0000

> <r_epik_Ionization_Penalty_Neutral>
  0.0000

> <r_epik_State_Penalty>
 -0.0000

> <r_epik_Charging_Adjusted_Penalty>
0

> <i_epik_Tot_Q>
0

> <i_epik_Tot_abs_Q>
0

> <s_epik_Chemistry_Notes>
This compound has an ester and may undergo hydrolysis at high or low pH.

> <s_lp_Force_Field>
OPLS3e

> <r_lp_Energy>
48.203348

> <b_lp_Chiralities_Consistent>
1

> <s_lp_Variant>
sdf/inactives_sanitized.sdf:201-1

$$$$
sdf/inactives_sanitized.sdf:202
                    3D
 Schrodinger Suite 2020-1.
 51 53  0  0  1  0            999 V2000
   -5.3737    5.6994   -0.2812 N   0  0  0  0  0  0
    5.0423    0.0324    4.5178 N   0  0  0  0  0  0
   -7.9339    6.1383   -1.7095 N   0  3  0  0  0  0
   -4.5666    4.5636   -0.2003 C   0  0  0  0  0  0
    4.2306    0.7766    4.1619 C   0  0  0  0  0  0
    2.0679    0.3685    1.9624 C   0  0  0  0  0  0
   -2.0027    1.0814    0.0092 C   0  0  0  0  0  0
   -2.8880    2.2868   -0.0582 C   0  0  0  0  0  0
   -0.6163    1.2088    0.1929 C   0  0  0  0  0  0
   -5.4578    6.4696   -1.5372 C   0  0  0  0  0  0
   -6.6628    5.8244    0.4257 C   0  0  0  0  0  0
    1.7333   -0.5220    2.7449 O   0  0  0  0  0  0
    0.2196    0.0879    0.2474 C   0  0  0  0  0  0
   -3.2373    4.6213   -0.6357 C   0  0  0  0  0  0
   -5.0404    3.3513    0.3196 C   0  0  0  0  0  0
   -4.2147    2.2325    0.3866 C   0  0  0  0  0  0
   -2.4130    3.5018   -0.5677 C   0  0  0  0  0  0
    1.7185    0.2585    0.4712 C   0  0  0  0  0  0
   -7.8655    5.3208   -0.4049 C   0  0  0  0  0  0
   -6.5971    5.9847   -2.4609 C   0  0  0  0  0  0
    2.7464    1.4641    2.3443 N   0  0  0  0  0  0
    3.1975    1.7250    3.7086 C   0  0  0  0  0  0
   -9.1099    5.6688   -2.5874 C   0  0  0  0  0  0
   -2.5312   -0.2139   -0.1098 C   0  0  0  0  0  0
   -1.7089   -1.3379   -0.0454 C   0  0  0  0  0  0
   -0.3367   -1.1884    0.1356 C   0  0  0  0  0  0
   -0.1736    2.1875    0.3070 H   0  0  0  0  0  0
   -5.6002    7.5245   -1.2959 H   0  0  0  0  0  0
   -4.5188    6.4227   -2.0880 H   0  0  0  0  0  0
   -6.6202    5.2976    1.3796 H   0  0  0  0  0  0
   -6.8155    6.8731    0.6870 H   0  0  0  0  0  0
   -2.8237    5.5400   -1.0255 H   0  0  0  0  0  0
   -6.0551    3.2522    0.6741 H   0  0  0  0  0  0
   -4.6191    1.3208    0.8010 H   0  0  0  0  0  0
   -1.3988    3.5901   -0.9281 H   0  0  0  0  0  0
    2.0681    1.1367   -0.0755 H   0  0  0  0  0  0
    2.2583   -0.5955    0.0592 H   0  0  0  0  0  0
   -8.8109    5.4891    0.1127 H   0  0  0  0  0  0
   -7.7847    4.2667   -0.6778 H   0  0  0  0  0  0
   -6.6763    6.5987   -3.3592 H   0  0  0  0  0  0
   -6.4915    4.9358   -2.7459 H   0  0  0  0  0  0
    3.0325    2.1290    1.6405 H   0  0  0  0  0  0
    2.3594    1.6948    4.4068 H   0  0  0  0  0  0
    3.6185    2.7293    3.7565 H   0  0  0  0  0  0
   -8.9534    4.6176   -2.8353 H   0  0  0  0  0  0
   -9.1139    6.2962   -3.4798 H   0  0  0  0  0  0
  -10.0218    5.8140   -2.0066 H   0  0  0  0  0  0
   -3.5896   -0.3638   -0.2639 H   0  0  0  0  0  0
   -2.1363   -2.3256   -0.1369 H   0  0  0  0  0  0
    0.2927   -2.0650    0.1905 H   0  0  0  0  0  0
   -8.0579    7.1127   -1.4719 H   0  0  0  0  0  0
  1  4  1  0  0  0
  1 10  1  0  0  0
  1 11  1  0  0  0
  2  5  3  0  0  0
  3 19  1  0  0  0
  3 23  1  0  0  0
  3 20  1  0  0  0
  3 51  1  0  0  0
  4 14  2  0  0  0
  4 15  1  0  0  0
  5 22  1  0  0  0
  6 18  1  0  0  0
  6 12  2  0  0  0
  6 21  1  0  0  0
  7  8  1  0  0  0
  7  9  2  0  0  0
  7 24  1  0  0  0
  8 16  1  0  0  0
  8 17  2  0  0  0
  9 13  1  0  0  0
  9 27  1  0  0  0
 10 20  1  0  0  0
 10 28  1  0  0  0
 10 29  1  0  0  0
 11 19  1  0  0  0
 11 30  1  0  0  0
 11 31  1  0  0  0
 13 18  1  0  0  0
 13 26  2  0  0  0
 14 17  1  0  0  0
 14 32  1  0  0  0
 15 16  2  0  0  0
 15 33  1  0  0  0
 16 34  1  0  0  0
 17 35  1  0  0  0
 18 36  1  0  0  0
 18 37  1  0  0  0
 19 38  1  0  0  0
 19 39  1  0  0  0
 20 40  1  0  0  0
 20 41  1  0  0  0
 21 22  1  0  0  0
 21 42  1  0  0  0
 22 43  1  0  0  0
 22 44  1  0  0  0
 23 45  1  0  0  0
 23 46  1  0  0  0
 23 47  1  0  0  0
 24 25  2  0  0  0
 24 48  1  0  0  0
 25 26  1  0  0  0
 25 49  1  0  0  0
 26 50  1  0  0  0
M  CHG  1   3   1
M  END
> <chembl_id>
CHEMBL123987

> <chembl_pref_name>
None

> <s_m_source_file>
sdf/inactives_sanitized.sdf

> <i_m_source_file_index>
202

> <i_lp_mmshare_version>
49012

> <i_m_ct_stereo_status>
1

> <i_f3d_flags>
0

> <s_epik_input>
W0NIMl0xW0NIMl1OKFtDSDNdKVtDSDJdW0NIMl1OMWMyW2NIXVtjSF1jKFtjSF1bY0hdMiktYzNbY0hdYyhbY0hdW2NIXVtjSF0zKVtDSDJdQyg9TylbTkhdW0NIMl1DI04=

> <s_epik_cmdline>
J2VwaWtfcHl0aG9uJywgJy1waHQnLCAnMC41JywgJy1waCcsICc3LjUnLCAnLW50JywgJy1tYScsICcyMDAnLCAnLWltYWUnLCAnPGluZmlsZS5tYWU+JywgJy1vbWFlJywgJzxvdXRmaWxlLm1hZT4n

> <r_epik_Ionization_Penalty>
  0.1845

> <r_epik_Ionization_Penalty_Charging>
  0.1844

> <r_epik_Ionization_Penalty_Neutral>
  0.0001

> <r_epik_State_Penalty>
  0.1740

> <r_epik_Charging_Adjusted_Penalty>
0.358412825985856

> <i_epik_Tot_Q>
1

> <i_epik_Tot_abs_Q>
1

> <s_lp_Force_Field>
OPLS3e

> <r_lp_Energy>
50.150516

> <b_lp_Chiralities_Consistent>
1

> <s_lp_Variant>
sdf/inactives_sanitized.sdf:202-1

$$$$
sdf/inactives_sanitized.sdf:203
                    3D
 Schrodinger Suite 2020-1.
 60 60  0  0  1  0            999 V2000
    3.3524    1.0388   -1.3055 C   0  0  0  0  0  0
    2.9079   -0.4030   -0.7999 C   0  0  0  0  0  0
    6.2289    2.4132   -2.1484 C   0  0  0  0  0  0
   -0.2719    0.8592    0.2902 C   0  0  0  0  0  0
    7.4174    2.7009   -2.6265 N   0  0  0  0  0  0
    4.2291    0.9794   -2.3270 N   0  0  0  0  0  0
    8.2353    2.9340   -1.5250 N   0  0  0  0  0  0
    0.6179    0.0086   -0.3528 N   0  0  0  0  0  0
    6.1914    2.4715   -0.7917 O   0  0  0  0  0  0
    1.8574   -0.4301    0.3097 C   0  0  1  0  0  0
   -1.3461    1.0425   -0.5090 O   0  0  0  0  0  0
    4.9359    2.1254   -2.9072 C   0  0  2  0  0  0
   -2.4664    1.8474   -0.1183 C   0  0  0  0  0  0
    7.4700    2.7899   -0.4728 C   0  0  0  0  0  0
    3.4354   -1.4175   -1.2678 O   0  0  0  0  0  0
    2.9151    2.0685   -0.7891 O   0  0  0  0  0  0
   -0.1279    1.3631    1.4067 O   0  0  0  0  0  0
   -3.6578    0.9230    0.2841 C   0  0  0  0  0  0
   -2.7539    2.8663   -1.2634 C   0  0  0  0  0  0
    1.7258   -1.8367    0.9589 C   0  0  0  0  0  0
    5.1683    1.8957   -4.4125 C   0  0  0  0  0  0
   -1.5320    3.7673   -1.5458 C   0  0  0  0  0  0
   -3.3443    0.0694    1.5294 C   0  0  0  0  0  0
   -4.1675    0.0358   -0.8709 C   0  0  0  0  0  0
   -3.9940    3.7447   -0.9967 C   0  0  0  0  0  0
    0.7251   -1.8967    2.1310 C   0  0  0  0  0  0
    0.6895   -3.2713    2.8209 C   0  0  0  0  0  0
   -0.3142   -3.3301    3.9806 C   0  0  0  0  0  0
    4.5558    0.0659   -2.6080 H   0  0  0  0  0  0
    0.3213   -0.4698   -1.1907 H   0  0  0  0  0  0
    2.1742    0.2688    1.0884 H   0  0  0  0  0  0
    4.2968    3.0072   -2.8225 H   0  0  0  0  0  0
   -2.2152    2.4481    0.7583 H   0  0  0  0  0  0
    7.7058    2.8900    0.5764 H   0  0  0  0  0  0
   -4.4847    1.5663    0.5841 H   0  0  0  0  0  0
   -2.9465    2.3057   -2.1792 H   0  0  0  0  0  0
    1.4185   -2.5657    0.2063 H   0  0  0  0  0  0
    2.7037   -2.1573    1.3240 H   0  0  0  0  0  0
    5.6196    2.7710   -4.8812 H   0  0  0  0  0  0
    4.2298    1.6990   -4.9321 H   0  0  0  0  0  0
    5.8287    1.0461   -4.5914 H   0  0  0  0  0  0
   -1.2544    4.3481   -0.6653 H   0  0  0  0  0  0
   -1.7344    4.4699   -2.3550 H   0  0  0  0  0  0
   -0.6598    3.1846   -1.8443 H   0  0  0  0  0  0
   -2.5737   -0.6748    1.3268 H   0  0  0  0  0  0
   -4.2299   -0.4656    1.8738 H   0  0  0  0  0  0
   -2.9979    0.6890    2.3574 H   0  0  0  0  0  0
   -3.3901   -0.6386   -1.2312 H   0  0  0  0  0  0
   -4.5091    0.6316   -1.7173 H   0  0  0  0  0  0
   -5.0120   -0.5768   -0.5539 H   0  0  0  0  0  0
   -3.9038    4.2859   -0.0540 H   0  0  0  0  0  0
   -4.9098    3.1552   -0.9590 H   0  0  0  0  0  0
   -4.1340    4.4824   -1.7878 H   0  0  0  0  0  0
    0.9798   -1.1309    2.8653 H   0  0  0  0  0  0
   -0.2763   -1.6594    1.7706 H   0  0  0  0  0  0
    0.4363   -4.0410    2.0906 H   0  0  0  0  0  0
    1.6833   -3.5201    3.1958 H   0  0  0  0  0  0
   -0.3192   -4.3181    4.4418 H   0  0  0  0  0  0
   -1.3278   -3.1200    3.6375 H   0  0  0  0  0  0
   -0.0659   -2.6042    4.7556 H   0  0  0  0  0  0
  1  2  1  0  0  0
  1  6  1  0  0  0
  1 16  2  0  0  0
  2 10  1  0  0  0
  2 15  2  0  0  0
  3 12  1  0  0  0
  3  5  2  0  0  0
  3  9  1  0  0  0
  4  8  1  0  0  0
  4 11  1  0  0  0
  4 17  2  0  0  0
  5  7  1  0  0  0
  6 12  1  0  0  0
  6 29  1  0  0  0
  7 14  2  0  0  0
  8 10  1  0  0  0
  8 30  1  0  0  0
  9 14  1  0  0  0
 10 20  1  0  0  0
 10 31  1  0  0  0
 11 13  1  0  0  0
 12 21  1  0  0  0
 12 32  1  0  0  0
 13 18  1  0  0  0
 13 19  1  0  0  0
 13 33  1  0  0  0
 14 34  1  0  0  0
 18 23  1  0  0  0
 18 24  1  0  0  0
 18 35  1  0  0  0
 19 22  1  0  0  0
 19 25  1  0  0  0
 19 36  1  0  0  0
 20 26  1  0  0  0
 20 37  1  0  0  0
 20 38  1  0  0  0
 21 39  1  0  0  0
 21 40  1  0  0  0
 21 41  1  0  0  0
 22 42  1  0  0  0
 22 43  1  0  0  0
 22 44  1  0  0  0
 23 45  1  0  0  0
 23 46  1  0  0  0
 23 47  1  0  0  0
 24 48  1  0  0  0
 24 49  1  0  0  0
 24 50  1  0  0  0
 25 51  1  0  0  0
 25 52  1  0  0  0
 25 53  1  0  0  0
 26 27  1  0  0  0
 26 54  1  0  0  0
 26 55  1  0  0  0
 27 28  1  0  0  0
 27 56  1  0  0  0
 27 57  1  0  0  0
 28 58  1  0  0  0
 28 59  1  0  0  0
 28 60  1  0  0  0
M  END
> <chembl_id>
CHEMBL87946

> <chembl_pref_name>
None

> <i_m_ct_stereo_status>
1

> <s_m_source_file>
sdf/inactives_sanitized.sdf

> <i_m_source_file_index>
203

> <i_lp_mmshare_version>
49012

> <i_f3d_flags>
0

> <s_epik_input>
bzFbY0hdbm5jMVtDQEBIXShbQ0gzXSlbTkhdQyg9TylDKD1PKVtDQEhdKFtDSDJdW0NIMl1bQ0gyXVtDSDNdKVtOSF1DKD1PKU9bQ0hdKFtDSF0oW0NIM10pW0NIM10pW0NIXShbQ0gzXSlbQ0gzXQ==

> <s_epik_cmdline>
J2VwaWtfcHl0aG9uJywgJy1waHQnLCAnMC41JywgJy1waCcsICc3LjUnLCAnLW50JywgJy1tYScsICcyMDAnLCAnLWltYWUnLCAnPGluZmlsZS5tYWU+JywgJy1vbWFlJywgJzxvdXRmaWxlLm1hZT4n

> <r_lp_tautomer_probability>
1

> <r_epik_Ionization_Penalty>
  0.0000

> <r_epik_Ionization_Penalty_Charging>
  0.0000

> <r_epik_Ionization_Penalty_Neutral>
  0.0000

> <r_epik_State_Penalty>
 -0.0000

> <r_epik_Charging_Adjusted_Penalty>
0

> <i_epik_Tot_Q>
0

> <i_epik_Tot_abs_Q>
0

> <s_epik_Chemistry_Notes>
This compound has an ester and may undergo hydrolysis at high or low pH.

> <s_lp_Force_Field>
OPLS3e

> <r_lp_Energy>
25.057944

> <b_lp_Chiralities_Consistent>
1

> <s_lp_Variant>
sdf/inactives_sanitized.sdf:203-1

$$$$
sdf/inactives_sanitized.sdf:204
                    3D
 Schrodinger Suite 2020-1.
 48 50  0  0  1  0            999 V2000
   -2.2225   -5.6477    1.6675 C   0  0  0  0  0  0
   -2.3367   -4.8271    0.5097 O   0  0  0  0  0  0
   -1.7182   -3.5916    0.4962 C   0  0  0  0  0  0
   -0.9990   -3.0564    1.5746 C   0  0  0  0  0  0
   -0.3937   -1.8083    1.4630 C   0  0  0  0  0  0
   -0.4852   -1.0735    0.2743 C   0  0  0  0  0  0
   -1.2208   -1.6037   -0.7931 C   0  0  0  0  0  0
   -1.8291   -2.8509   -0.6802 C   0  0  0  0  0  0
    0.2041    0.2266    0.1548 C   0  0  0  0  0  0
   -0.5968    1.2062   -0.0768 N   0  0  0  0  0  0
   -0.0910    2.4081   -0.4223 N   0  0  0  0  0  0
   -0.8423    3.5198   -0.6598 C   0  0  0  0  0  0
   -0.1162    4.9467   -1.0785 S   0  0  0  0  0  0
   -2.1911    3.4421   -0.5460 N   0  0  0  0  0  0
    1.7095    0.2408    0.2868 C   0  0  0  0  0  0
    2.4748    1.3951    0.5466 C   0  0  0  0  0  0
    3.8609    1.3421    0.6783 C   0  0  0  0  0  0
    4.5285    0.1266    0.5783 C   0  0  0  0  0  0
    3.8126   -1.0551    0.3640 C   0  0  0  0  0  0
    2.4237   -0.9703    0.1912 C   0  0  0  0  0  0
    4.5369   -2.3647    0.2292 C   0  0  0  0  0  0
    5.7012   -2.3752   -0.1788 O   0  0  0  0  0  0
    3.8594   -3.6617    0.5782 C   0  0  0  0  0  0
    4.2755   -4.8491   -0.0413 C   0  0  0  0  0  0
    3.6730   -6.0626    0.2812 C   0  0  0  0  0  0
    2.6647   -6.1018    1.2412 C   0  0  0  0  0  0
    2.0681   -7.2942    1.5537 O   0  0  0  0  0  0
    2.2647   -4.9373    1.8914 C   0  0  0  0  0  0
    2.8679   -3.7248    1.5697 C   0  0  0  0  0  0
   -2.7506   -6.5856    1.4964 H   0  0  0  0  0  0
   -2.6699   -5.1717    2.5414 H   0  0  0  0  0  0
   -1.1808   -5.8907    1.8847 H   0  0  0  0  0  0
   -0.8932   -3.5952    2.5039 H   0  0  0  0  0  0
    0.1632   -1.4217    2.3051 H   0  0  0  0  0  0
   -1.3110   -1.0592   -1.7226 H   0  0  0  0  0  0
   -2.3832   -3.2498   -1.5173 H   0  0  0  0  0  0
    0.9155    2.4528   -0.4952 H   0  0  0  0  0  0
   -2.6219    2.5694   -0.2770 H   0  0  0  0  0  0
   -2.7565    4.2595   -0.7239 H   0  0  0  0  0  0
    2.0268    2.3638    0.6930 H   0  0  0  0  0  0
    4.4179    2.2469    0.8731 H   0  0  0  0  0  0
    5.6040    0.1125    0.6884 H   0  0  0  0  0  0
    1.8920   -1.8788   -0.0509 H   0  0  0  0  0  0
    5.0560   -4.8414   -0.7894 H   0  0  0  0  0  0
    3.9904   -6.9684   -0.2149 H   0  0  0  0  0  0
    1.3935   -7.2088    2.2309 H   0  0  0  0  0  0
    1.4933   -4.9682    2.6470 H   0  0  0  0  0  0
    2.5550   -2.8408    2.1063 H   0  0  0  0  0  0
  1  2  1  0  0  0
  1 30  1  0  0  0
  1 31  1  0  0  0
  1 32  1  0  0  0
  2  3  1  0  0  0
  3  4  2  0  0  0
  3  8  1  0  0  0
  4  5  1  0  0  0
  4 33  1  0  0  0
  5  6  2  0  0  0
  5 34  1  0  0  0
  6  7  1  0  0  0
  6  9  1  0  0  0
  7  8  2  0  0  0
  7 35  1  0  0  0
  8 36  1  0  0  0
  9 10  2  0  0  0
  9 15  1  0  0  0
 10 11  1  0  0  0
 11 12  1  0  0  0
 11 37  1  0  0  0
 12 13  2  0  0  0
 12 14  1  0  0  0
 14 38  1  0  0  0
 14 39  1  0  0  0
 15 16  2  0  0  0
 15 20  1  0  0  0
 16 17  1  0  0  0
 16 40  1  0  0  0
 17 18  2  0  0  0
 17 41  1  0  0  0
 18 19  1  0  0  0
 18 42  1  0  0  0
 19 20  2  0  0  0
 19 21  1  0  0  0
 20 43  1  0  0  0
 21 22  2  0  0  0
 21 23  1  0  0  0
 23 24  2  0  0  0
 23 29  1  0  0  0
 24 25  1  0  0  0
 24 44  1  0  0  0
 25 26  2  0  0  0
 25 45  1  0  0  0
 26 27  1  0  0  0
 26 28  1  0  0  0
 27 46  1  0  0  0
 28 29  2  0  0  0
 28 47  1  0  0  0
 29 48  1  0  0  0
M  END
> <chembl_id>
CHEMBL3699011

> <chembl_pref_name>
None

> <s_m_source_file>
sdf/inactives_sanitized.sdf

> <i_m_source_file_index>
204

> <i_lp_mmshare_version>
49012

> <i_m_ct_stereo_status>
1

> <i_f3d_flags>
0

> <s_epik_input>
W0NIM11PYzFbY0hdW2NIXWMoW2NIXVtjSF0xKS9DKD1OL1tOSF1DKD1TKVtOSDJdKWMyW2NIXVtjSF1bY0hdYyhbY0hdMilDKD1PKWMzW2NIXVtjSF1jKFtPSF0pW2NIXVtjSF0z

> <s_epik_cmdline>
J2VwaWtfcHl0aG9uJywgJy1waHQnLCAnMC41JywgJy1waCcsICc3LjUnLCAnLW50JywgJy1tYScsICcyMDAnLCAnLWltYWUnLCAnPGluZmlsZS5tYWU+JywgJy1vbWFlJywgJzxvdXRmaWxlLm1hZT4n

> <r_epik_Ionization_Penalty>
  0.0237

> <r_epik_Ionization_Penalty_Charging>
  0.0000

> <r_epik_Ionization_Penalty_Neutral>
  0.0237

> <r_epik_State_Penalty>
  0.0191

> <r_epik_Charging_Adjusted_Penalty>
0.0191229612898803

> <i_epik_Tot_Q>
0

> <i_epik_Tot_abs_Q>
0

> <s_epik_Chemistry_Notes>
This compound has an imine and may undergo hydrolysis.

> <s_lp_Force_Field>
OPLS3e

> <r_lp_Energy>
63.070436

> <b_lp_Chiralities_Consistent>
1

> <s_lp_Variant>
sdf/inactives_sanitized.sdf:204-1

$$$$
sdf/inactives_sanitized.sdf:205
                    3D
 Schrodinger Suite 2020-1.
 61 62  0  0  1  0            999 V2000
    2.9808    1.0628   -3.3547 N   0  0  0  0  0  0
    2.6362    1.0767   -2.0868 C   0  0  0  0  0  0
    3.9664    1.8975   -3.6632 C   0  0  0  0  0  0
    1.5787    0.2531   -1.4883 C   0  0  0  0  0  0
    3.5611    2.1992   -1.1336 S   0  0  0  0  0  0
   -0.9509    1.2149    0.0408 C   0  0  0  0  0  0
    4.4369    2.6254   -2.5685 C   0  0  0  0  0  0
    4.4620    1.9909   -5.0429 C   0  0  0  0  0  0
   -0.0874    0.1592    0.3282 N   0  0  0  0  0  0
    1.3600    0.2409    0.0362 C   0  0  1  0  0  0
    0.8813   -0.4580   -2.2179 O   0  0  0  0  0  0
   -2.1960    0.8809    0.4480 O   0  0  0  0  0  0
   -0.6470    2.2886   -0.4857 O   0  0  0  0  0  0
    5.3911    2.7363   -5.3637 O   0  0  0  0  0  0
   -3.3031    1.7758    0.3097 C   0  0  2  0  0  0
    3.7886    1.1805   -5.9034 O   0  0  0  0  0  0
   -3.3251    2.7687    1.4988 C   0  0  0  0  0  0
   -4.3073    3.9172    1.3127 C   0  0  0  0  0  0
    2.0817   -0.9800    0.6689 C   0  0  0  0  0  0
   -4.5948    0.9345    0.2040 C   0  0  0  0  0  0
    4.1321    1.1367   -7.2822 C   0  0  0  0  0  0
   -3.9585    5.0041    0.5063 C   0  0  0  0  0  0
   -5.5526    3.8859    1.9469 C   0  0  0  0  0  0
    3.6245   -0.9359    0.6166 C   0  0  0  0  0  0
    4.2840   -2.1133    1.3555 C   0  0  0  0  0  0
   -4.6265    0.0048   -1.0198 C   0  0  0  0  0  0
    3.1896    0.1742   -8.0114 C   0  0  0  0  0  0
    5.8170   -2.0650    1.3038 C   0  0  0  0  0  0
   -4.8534    6.0569    0.3337 C   0  0  0  0  0  0
   -6.4476    4.9383    1.7726 C   0  0  0  0  0  0
   -6.0939    6.0189    0.9672 C   0  0  0  0  0  0
    5.2240    3.3648   -2.5408 H   0  0  0  0  0  0
   -0.3793   -0.4952    1.0394 H   0  0  0  0  0  0
    1.7331    1.1304    0.5450 H   0  0  0  0  0  0
   -3.1994    2.3396   -0.6199 H   0  0  0  0  0  0
   -3.5370    2.2412    2.4306 H   0  0  0  0  0  0
   -2.3360    3.2063    1.6438 H   0  0  0  0  0  0
    1.7824   -1.0474    1.7167 H   0  0  0  0  0  0
    1.7240   -1.9056    0.2123 H   0  0  0  0  0  0
   -4.7273    0.3414    1.1101 H   0  0  0  0  0  0
   -5.4581    1.5977    0.1458 H   0  0  0  0  0  0
    4.0560    2.1336   -7.7193 H   0  0  0  0  0  0
    5.1649    0.8045   -7.3973 H   0  0  0  0  0  0
   -2.9968    5.0331    0.0143 H   0  0  0  0  0  0
   -5.8296    3.0477    2.5699 H   0  0  0  0  0  0
    3.9613   -0.9394   -0.4209 H   0  0  0  0  0  0
    3.9734    0.0004    1.0547 H   0  0  0  0  0  0
    3.9626   -2.1190    2.3980 H   0  0  0  0  0  0
    3.9414   -3.0552    0.9248 H   0  0  0  0  0  0
   -5.5704   -0.5383   -1.0712 H   0  0  0  0  0  0
   -3.8250   -0.7337   -0.9828 H   0  0  0  0  0  0
   -4.5187    0.5690   -1.9469 H   0  0  0  0  0  0
    3.4351    0.1220   -9.0721 H   0  0  0  0  0  0
    2.1519    0.4980   -7.9259 H   0  0  0  0  0  0
    3.2623   -0.8344   -7.6032 H   0  0  0  0  0  0
    6.2518   -2.9047    1.8467 H   0  0  0  0  0  0
    6.1995   -1.1475    1.7526 H   0  0  0  0  0  0
    6.1800   -2.1119    0.2764 H   0  0  0  0  0  0
   -4.5869    6.8991   -0.2878 H   0  0  0  0  0  0
   -7.4113    4.9168    2.2595 H   0  0  0  0  0  0
   -6.7883    6.8353    0.8329 H   0  0  0  0  0  0
  1  2  2  0  0  0
  1  3  1  0  0  0
  2  4  1  0  0  0
  2  5  1  0  0  0
  3  7  2  0  0  0
  3  8  1  0  0  0
  4 10  1  0  0  0
  4 11  2  0  0  0
  5  7  1  0  0  0
  6  9  1  0  0  0
  6 12  1  0  0  0
  6 13  2  0  0  0
  7 32  1  0  0  0
  8 14  2  0  0  0
  8 16  1  0  0  0
  9 10  1  0  0  0
  9 33  1  0  0  0
 10 19  1  0  0  0
 10 34  1  0  0  0
 12 15  1  0  0  0
 15 17  1  0  0  0
 15 20  1  0  0  0
 15 35  1  0  0  0
 16 21  1  0  0  0
 17 18  1  0  0  0
 17 36  1  0  0  0
 17 37  1  0  0  0
 18 22  2  0  0  0
 18 23  1  0  0  0
 19 24  1  0  0  0
 19 38  1  0  0  0
 19 39  1  0  0  0
 20 26  1  0  0  0
 20 40  1  0  0  0
 20 41  1  0  0  0
 21 27  1  0  0  0
 21 42  1  0  0  0
 21 43  1  0  0  0
 22 29  1  0  0  0
 22 44  1  0  0  0
 23 30  2  0  0  0
 23 45  1  0  0  0
 24 25  1  0  0  0
 24 46  1  0  0  0
 24 47  1  0  0  0
 25 28  1  0  0  0
 25 48  1  0  0  0
 25 49  1  0  0  0
 26 50  1  0  0  0
 26 51  1  0  0  0
 26 52  1  0  0  0
 27 53  1  0  0  0
 27 54  1  0  0  0
 27 55  1  0  0  0
 28 56  1  0  0  0
 28 57  1  0  0  0
 28 58  1  0  0  0
 29 31  2  0  0  0
 29 59  1  0  0  0
 30 31  1  0  0  0
 30 60  1  0  0  0
 31 61  1  0  0  0
M  END
> <chembl_id>
CHEMBL359612

> <chembl_pref_name>
None

> <i_m_ct_stereo_status>
1

> <s_m_source_file>
sdf/inactives_sanitized.sdf

> <i_m_source_file_index>
205

> <i_lp_mmshare_version>
49012

> <i_f3d_flags>
0

> <s_epik_input>
W0NIM11bQ0gyXU9DKD1PKWMoW2NIXXMxKW5jMUMoPU8pW0NASF0oW0NIMl1bQ0gyXVtDSDJdW0NIM10pW05IXUMoPU8pT1tDQEBIXShbQ0gyXVtDSDNdKVtDSDJdYzJbY0hdW2NIXVtjSF1bY0hdW2NIXTI=

> <s_epik_cmdline>
J2VwaWtfcHl0aG9uJywgJy1waHQnLCAnMC41JywgJy1waCcsICc3LjUnLCAnLW50JywgJy1tYScsICcyMDAnLCAnLWltYWUnLCAnPGluZmlsZS5tYWU+JywgJy1vbWFlJywgJzxvdXRmaWxlLm1hZT4n

> <r_lp_tautomer_probability>
1

> <r_epik_Ionization_Penalty>
  0.0000

> <r_epik_Ionization_Penalty_Charging>
  0.0000

> <r_epik_Ionization_Penalty_Neutral>
  0.0000

> <r_epik_State_Penalty>
 -0.0000

> <r_epik_Charging_Adjusted_Penalty>
0

> <i_epik_Tot_Q>
0

> <i_epik_Tot_abs_Q>
0

> <s_epik_Chemistry_Notes>
This compound has an ester and may undergo hydrolysis at high or low pH.

> <s_lp_Force_Field>
OPLS3e

> <r_lp_Energy>
33.866728

> <b_lp_Chiralities_Consistent>
1

> <s_lp_Variant>
sdf/inactives_sanitized.sdf:205-1

$$$$
sdf/inactives_sanitized.sdf:206
                    3D
 Schrodinger Suite 2020-1.
 44 47  0  0  1  0            999 V2000
   -0.3879    2.4440    0.2670 N   0  0  0  0  0  0
   -1.4521    3.2804    0.4056 C   0  0  0  0  0  0
   -2.7688    2.9909    0.2413 N   0  0  0  0  0  0
   -3.0711    1.7122   -0.1032 C   0  0  0  0  0  0
   -0.7341    1.1925   -0.0752 C   0  0  0  0  0  0
   -2.0659    0.7466   -0.2780 C   0  0  0  0  0  0
   -1.9922   -0.6356   -0.6164 C   0  0  0  0  0  0
   -0.6519   -1.0065   -0.6107 C   0  0  0  0  0  0
    0.1105    0.1133   -0.2933 N   0  0  0  0  0  0
   -1.1410    4.6512    0.7738 C   0  0  0  0  0  0
   -0.8930    5.7432    1.0669 N   0  0  0  0  0  0
   -0.0038   -2.3588   -0.8838 C   0  0  0  0  0  0
   -1.0045   -3.4791   -1.1381 C   0  0  0  0  0  0
   -1.4625   -3.7247   -2.4356 C   0  0  0  0  0  0
   -2.3834   -4.7428   -2.6667 C   0  0  0  0  0  0
   -2.8444   -5.5132   -1.6003 C   0  0  0  0  0  0
   -2.3911   -5.2724   -0.3042 C   0  0  0  0  0  0
   -1.4703   -4.2541   -0.0724 C   0  0  0  0  0  0
   -3.9867   -6.7750   -1.8873 Cl  0  0  0  0  0  0
    1.5680    0.1508   -0.1498 C   0  0  0  0  0  0
    1.9631   -0.0538    1.3251 C   0  0  0  0  0  0
    3.4701   -0.0361    1.5250 C   0  0  0  0  0  0
    4.1971   -1.2311    1.5155 C   0  0  0  0  0  0
    5.5810   -1.2124    1.6928 C   0  0  0  0  0  0
    6.2449    0.0002    1.8788 C   0  0  0  0  0  0
    5.5250    1.1960    1.8878 C   0  0  0  0  0  0
    4.1402    1.1776    1.7120 C   0  0  0  0  0  0
    6.3466    2.6968    2.1147 Cl  0  0  0  0  0  0
   -4.1158    1.4710   -0.2331 H   0  0  0  0  0  0
   -2.8166   -1.2989   -0.8338 H   0  0  0  0  0  0
    0.6554   -2.2854   -1.7500 H   0  0  0  0  0  0
    0.6324   -2.6457   -0.0449 H   0  0  0  0  0  0
   -1.1099   -3.1263   -3.2633 H   0  0  0  0  0  0
   -2.7377   -4.9310   -3.6697 H   0  0  0  0  0  0
   -2.7515   -5.8709    0.5198 H   0  0  0  0  0  0
   -1.1234   -4.0670    0.9336 H   0  0  0  0  0  0
    2.0121   -0.6141   -0.7871 H   0  0  0  0  0  0
    1.9197    1.1172   -0.5155 H   0  0  0  0  0  0
    1.5192    0.7230    1.9507 H   0  0  0  0  0  0
    1.5658   -0.9985    1.7008 H   0  0  0  0  0  0
    3.6926   -2.1754    1.3699 H   0  0  0  0  0  0
    6.1386   -2.1374    1.6852 H   0  0  0  0  0  0
    7.3166    0.0101    2.0149 H   0  0  0  0  0  0
    3.5868    2.1060    1.7180 H   0  0  0  0  0  0
  1  2  2  0  0  0
  1  5  1  0  0  0
  2  3  1  0  0  0
  2 10  1  0  0  0
  3  4  2  0  0  0
  4  6  1  0  0  0
  4 29  1  0  0  0
  5  9  1  0  0  0
  5  6  2  0  0  0
  6  7  1  0  0  0
  7  8  2  0  0  0
  7 30  1  0  0  0
  8  9  1  0  0  0
  8 12  1  0  0  0
  9 20  1  0  0  0
 10 11  3  0  0  0
 12 13  1  0  0  0
 12 31  1  0  0  0
 12 32  1  0  0  0
 13 14  2  0  0  0
 13 18  1  0  0  0
 14 15  1  0  0  0
 14 33  1  0  0  0
 15 16  2  0  0  0
 15 34  1  0  0  0
 16 17  1  0  0  0
 16 19  1  0  0  0
 17 18  2  0  0  0
 17 35  1  0  0  0
 18 36  1  0  0  0
 20 21  1  0  0  0
 20 37  1  0  0  0
 20 38  1  0  0  0
 21 22  1  0  0  0
 21 39  1  0  0  0
 21 40  1  0  0  0
 22 23  2  0  0  0
 22 27  1  0  0  0
 23 24  1  0  0  0
 23 41  1  0  0  0
 24 25  2  0  0  0
 24 42  1  0  0  0
 25 26  1  0  0  0
 25 43  1  0  0  0
 26 27  2  0  0  0
 26 28  1  0  0  0
 27 44  1  0  0  0
M  END
> <chembl_id>
CHEMBL493472

> <chembl_pref_name>
None

> <s_m_source_file>
sdf/inactives_sanitized.sdf

> <i_m_source_file_index>
206

> <i_lp_mmshare_version>
49012

> <i_m_ct_stereo_status>
1

> <i_f3d_flags>
0

> <s_epik_input>
TiNDYyhuMSluW2NIXWMoYzEyKVtjSF1jKFtDSDJdYzNbY0hdW2NIXWMoQ2wpW2NIXVtjSF0zKW4yW0NIMl1bQ0gyXWM0W2NIXVtjSF1bY0hdYyhDbClbY0hdNA==

> <s_epik_cmdline>
J2VwaWtfcHl0aG9uJywgJy1waHQnLCAnMC41JywgJy1waCcsICc3LjUnLCAnLW50JywgJy1tYScsICcyMDAnLCAnLWltYWUnLCAnPGluZmlsZS5tYWU+JywgJy1vbWFlJywgJzxvdXRmaWxlLm1hZT4n

> <r_lp_tautomer_probability>
1

> <r_epik_Ionization_Penalty>
  0.0000

> <r_epik_Ionization_Penalty_Charging>
  0.0000

> <r_epik_Ionization_Penalty_Neutral>
  0.0000

> <r_epik_State_Penalty>
 -0.0000

> <r_epik_Charging_Adjusted_Penalty>
0

> <i_epik_Tot_Q>
0

> <i_epik_Tot_abs_Q>
0

> <s_lp_Force_Field>
OPLS3e

> <r_lp_Energy>
35.913378

> <b_lp_Chiralities_Consistent>
1

> <s_lp_Variant>
sdf/inactives_sanitized.sdf:206-1

$$$$
sdf/inactives_sanitized.sdf:207
                    3D
 Schrodinger Suite 2020-1.
 62 65  0  0  1  0            999 V2000
   -1.7795    1.7038    0.0788 C   0  0  2  0  0  0
   -2.6956    3.3649   -0.8428 N   0  0  0  0  0  0
   -2.3929    2.0782   -1.2886 C   0  0  0  0  0  0
   -2.0657    3.1771    0.4847 C   0  0  1  0  0  0
   -0.3628    1.3386    0.0131 N   0  0  0  0  0  0
    0.1227    0.0962    0.1800 C   0  0  0  0  0  0
    2.5845   -0.0781    2.3730 C   0  0  0  0  0  0
    1.6532   -0.0598    0.0603 C   0  0  1  0  0  0
    2.2234   -0.7646    1.2197 N   0  0  0  0  0  0
   -2.9455    3.3155    1.5562 O   0  0  0  0  0  0
   -2.5545    1.5029   -2.3628 O   0  0  0  0  0  0
   -0.5755   -0.8983    0.3844 O   0  0  0  0  0  0
    2.0719   -0.7686   -1.2517 C   0  0  0  0  0  0
    2.4883    1.1377    2.5612 O   0  0  0  0  0  0
    3.0551   -0.9616    3.2746 O   0  0  0  0  0  0
   -2.3308    3.2004    2.8356 C   0  0  0  0  0  0
    3.4826   -0.5294    4.5604 C   0  0  0  0  0  0
    3.5667   -0.7866   -1.5307 C   0  0  0  0  0  0
   -3.3871    3.3275    3.9222 C   0  0  0  0  0  0
    3.8548   -1.7342    5.4045 C   0  0  0  0  0  0
    4.3710   -1.8463   -1.0591 C   0  0  0  0  0  0
    4.1893    0.3361   -2.1166 C   0  0  0  0  0  0
    5.1899   -2.1348    5.4974 C   0  0  0  0  0  0
    2.8598   -2.4354    6.0899 C   0  0  0  0  0  0
   -3.5063    2.3385    4.9029 C   0  0  0  0  0  0
   -4.2328    4.4405    3.9445 C   0  0  0  0  0  0
    3.2009   -3.5365    6.8713 C   0  0  0  0  0  0
    5.5301   -3.2360    6.2791 C   0  0  0  0  0  0
    5.5675    0.3571   -2.2857 C   0  0  0  0  0  0
   -4.4721    2.4598    5.8990 C   0  0  0  0  0  0
   -5.1980    4.5614    4.9409 C   0  0  0  0  0  0
    5.7475   -1.8062   -1.2373 C   0  0  0  0  0  0
   -5.3138    3.5701    5.9131 C   0  0  0  0  0  0
    4.5343   -3.9312    6.9627 C   0  0  0  0  0  0
    6.3422   -0.7119   -1.8532 C   0  0  0  0  0  0
   -2.3270    0.9502    0.6501 H   0  0  0  0  0  0
   -2.7626    4.1992   -1.4072 H   0  0  0  0  0  0
   -1.1971    3.8211    0.6501 H   0  0  0  0  0  0
    0.2846    2.0883   -0.1832 H   0  0  0  0  0  0
    2.0955    0.9389   -0.0069 H   0  0  0  0  0  0
    2.3172   -1.7690    1.1837 H   0  0  0  0  0  0
    1.7161   -1.8008   -1.2483 H   0  0  0  0  0  0
    1.5823   -0.2915   -2.1031 H   0  0  0  0  0  0
   -1.8130    2.2422    2.9185 H   0  0  0  0  0  0
   -1.5844    3.9840    2.9784 H   0  0  0  0  0  0
    4.3393    0.1408    4.4721 H   0  0  0  0  0  0
    2.6920    0.0314    5.0627 H   0  0  0  0  0  0
    3.9194   -2.6919   -0.5610 H   0  0  0  0  0  0
    3.5966    1.1798   -2.4386 H   0  0  0  0  0  0
    5.9620   -1.5956    4.9676 H   0  0  0  0  0  0
    1.8263   -2.1284    6.0184 H   0  0  0  0  0  0
   -2.8553    1.4762    4.8956 H   0  0  0  0  0  0
   -4.1433    5.2099    3.1912 H   0  0  0  0  0  0
    2.4356   -4.0812    7.4047 H   0  0  0  0  0  0
    6.5609   -3.5493    6.3564 H   0  0  0  0  0  0
    6.0399    1.2109   -2.7487 H   0  0  0  0  0  0
   -4.5683    1.6965    6.6571 H   0  0  0  0  0  0
   -5.8535    5.4195    4.9596 H   0  0  0  0  0  0
    6.3589   -2.6253   -0.8882 H   0  0  0  0  0  0
   -6.0629    3.6635    6.6857 H   0  0  0  0  0  0
    4.7987   -4.7846    7.5697 H   0  0  0  0  0  0
    7.4139   -0.6870   -1.9855 H   0  0  0  0  0  0
  1  3  1  0  0  0
  1  4  1  0  0  0
  1  5  1  0  0  0
  1 36  1  0  0  0
  2  4  1  0  0  0
  2  3  1  0  0  0
  2 37  1  0  0  0
  3 11  2  0  0  0
  4 10  1  0  0  0
  4 38  1  0  0  0
  5  6  1  0  0  0
  5 39  1  0  0  0
  6  8  1  0  0  0
  6 12  2  0  0  0
  7  9  1  0  0  0
  7 14  2  0  0  0
  7 15  1  0  0  0
  8  9  1  0  0  0
  8 13  1  0  0  0
  8 40  1  0  0  0
  9 41  1  0  0  0
 10 16  1  0  0  0
 13 18  1  0  0  0
 13 42  1  0  0  0
 13 43  1  0  0  0
 15 17  1  0  0  0
 16 19  1  0  0  0
 16 44  1  0  0  0
 16 45  1  0  0  0
 17 20  1  0  0  0
 17 46  1  0  0  0
 17 47  1  0  0  0
 18 21  2  0  0  0
 18 22  1  0  0  0
 19 25  2  0  0  0
 19 26  1  0  0  0
 20 23  2  0  0  0
 20 24  1  0  0  0
 21 32  1  0  0  0
 21 48  1  0  0  0
 22 29  2  0  0  0
 22 49  1  0  0  0
 23 28  1  0  0  0
 23 50  1  0  0  0
 24 27  2  0  0  0
 24 51  1  0  0  0
 25 30  1  0  0  0
 25 52  1  0  0  0
 26 31  2  0  0  0
 26 53  1  0  0  0
 27 34  1  0  0  0
 27 54  1  0  0  0
 28 34  2  0  0  0
 28 55  1  0  0  0
 29 35  1  0  0  0
 29 56  1  0  0  0
 30 33  2  0  0  0
 30 57  1  0  0  0
 31 33  1  0  0  0
 31 58  1  0  0  0
 32 35  2  0  0  0
 32 59  1  0  0  0
 33 60  1  0  0  0
 34 61  1  0  0  0
 35 62  1  0  0  0
M  END
> <chembl_id>
CHEMBL284984

> <chembl_pref_name>
None

> <i_m_ct_stereo_status>
1

> <s_m_source_file>
sdf/inactives_sanitized.sdf

> <i_m_source_file_index>
207

> <i_lp_mmshare_version>
49012

> <i_f3d_flags>
0

> <s_epik_input>
W2NIXTFbY0hdW2NIXVtjSF1bY0hdYzFbQ0gyXU9bQ0BASF0yW05IXUMoPU8pW0NASF0yW05IXUMoPU8pW0NASF0oW0NIMl1jM1tjSF1bY0hdW2NIXVtjSF1bY0hdMylbTkhdQyg9TylPW0NIMl1jNFtjSF1bY0hdW2NIXVtjSF1bY0hdNA==

> <s_epik_cmdline>
J2VwaWtfcHl0aG9uJywgJy1waHQnLCAnMC41JywgJy1waCcsICc3LjUnLCAnLW50JywgJy1tYScsICcyMDAnLCAnLWltYWUnLCAnPGluZmlsZS5tYWU+JywgJy1vbWFlJywgJzxvdXRmaWxlLm1hZT4n

> <r_lp_tautomer_probability>
1

> <r_epik_Ionization_Penalty>
  0.0000

> <r_epik_Ionization_Penalty_Charging>
  0.0000

> <r_epik_Ionization_Penalty_Neutral>
  0.0000

> <r_epik_State_Penalty>
 -0.0000

> <r_epik_Charging_Adjusted_Penalty>
0

> <i_epik_Tot_Q>
0

> <i_epik_Tot_abs_Q>
0

> <s_epik_Chemistry_Notes>
This compound has an ester and may undergo hydrolysis at high or low pH. This compound contains an acetal/aminal-like group ( X-CH(R)-Y where X, Y are N, S, or O) that may be acid/base labile, releasing an aldehyde.

> <s_lp_Force_Field>
OPLS3e

> <r_lp_Energy>
44.164382

> <b_lp_Chiralities_Consistent>
1

> <s_lp_Variant>
sdf/inactives_sanitized.sdf:207-1

$$$$
sdf/inactives_sanitized.sdf:208
                    3D
 Schrodinger Suite 2020-1.
 50 52  0  0  1  0            999 V2000
   -0.6994    2.0319   -1.1049 C   0  0  0  0  0  0
   -1.1863    3.3420   -1.1232 C   0  0  0  0  0  0
   -1.4848    3.9704    0.0913 C   0  0  0  0  0  0
   -1.2706    3.3085    1.3007 C   0  0  0  0  0  0
   -0.7492    2.0151    1.3079 C   0  0  0  0  0  0
   -0.4533    1.3715    0.1033 C   0  0  0  0  0  0
    0.1592   -0.0271    0.1015 C   0  0  0  0  0  0
    1.7023   -0.0083   -0.0888 C   0  0  2  0  0  0
    2.1057    0.6934   -1.3136 N   0  0  0  0  0  0
    2.2643   -1.4421   -0.1146 C   0  0  0  0  0  0
    2.0097   -2.1842   -1.0650 O   0  0  0  0  0  0
    2.9877   -1.8193    0.9526 N   0  0  0  0  0  0
    3.6290   -3.1237    1.0837 C   0  0  0  0  0  0
    4.7023   -3.3378    0.0966 C   0  0  0  0  0  0
    5.5453   -3.5060   -0.6779 N   0  0  0  0  0  0
    2.8796    1.7938   -1.3816 C   0  0  0  0  0  0
    3.4075    2.3101   -0.3941 O   0  0  0  0  0  0
    3.0739    2.3875   -2.7594 C   0  0  0  0  0  0
    4.1818    3.2089   -3.0123 C   0  0  0  0  0  0
    4.3618    3.7866   -4.2664 C   0  0  0  0  0  0
    3.4321    3.5519   -5.2752 C   0  0  0  0  0  0
    2.3246    2.7421   -5.0417 C   0  0  0  0  0  0
    2.1458    2.1607   -3.7897 C   0  0  0  0  0  0
   -1.3736    4.0160   -2.4431 C   0  0  0  0  0  0
   -1.8188    3.5009   -3.6535 C   0  0  0  0  0  0
   -1.7990    4.5607   -4.5598 C   0  0  0  0  0  0
   -1.3672    5.6684   -4.0103 N   0  0  0  0  0  0
   -1.0857    5.3357   -2.7405 N   0  0  0  0  0  0
   -0.5569    6.3734   -1.8647 C   0  0  0  0  0  0
   -0.4746    1.5321   -2.0359 H   0  0  0  0  0  0
   -1.8872    4.9722    0.1062 H   0  0  0  0  0  0
   -1.5005    3.8020    2.2335 H   0  0  0  0  0  0
   -0.5686    1.5191    2.2506 H   0  0  0  0  0  0
   -0.1137   -0.5389    1.0268 H   0  0  0  0  0  0
   -0.3283   -0.6070   -0.6853 H   0  0  0  0  0  0
    2.1163    0.5101    0.7795 H   0  0  0  0  0  0
    1.7425    0.3044   -2.1713 H   0  0  0  0  0  0
    3.1690   -1.1477    1.6845 H   0  0  0  0  0  0
    4.0672   -3.2032    2.0784 H   0  0  0  0  0  0
    2.8974   -3.9280    0.9911 H   0  0  0  0  0  0
    4.9121    3.4074   -2.2404 H   0  0  0  0  0  0
    5.2182    4.4170   -4.4548 H   0  0  0  0  0  0
    3.5695    4.0034   -6.2466 H   0  0  0  0  0  0
    1.6044    2.5676   -5.8273 H   0  0  0  0  0  0
    1.2725    1.5443   -3.6333 H   0  0  0  0  0  0
   -2.1295    2.4857   -3.8516 H   0  0  0  0  0  0
   -2.0936    4.5180   -5.5981 H   0  0  0  0  0  0
    0.1383    5.9342   -1.1487 H   0  0  0  0  0  0
   -1.3803    6.8497   -1.3321 H   0  0  0  0  0  0
   -0.0205    7.1272   -2.4440 H   0  0  0  0  0  0
  1  6  2  0  0  0
  1  2  1  0  0  0
  1 30  1  0  0  0
  2  3  2  0  0  0
  2 24  1  0  0  0
  3  4  1  0  0  0
  3 31  1  0  0  0
  4  5  2  0  0  0
  4 32  1  0  0  0
  5  6  1  0  0  0
  5 33  1  0  0  0
  6  7  1  0  0  0
  7  8  1  0  0  0
  7 34  1  0  0  0
  7 35  1  0  0  0
  8  9  1  0  0  0
  8 10  1  0  0  0
  8 36  1  0  0  0
  9 16  1  0  0  0
  9 37  1  0  0  0
 10 11  2  0  0  0
 10 12  1  0  0  0
 12 13  1  0  0  0
 12 38  1  0  0  0
 13 14  1  0  0  0
 13 39  1  0  0  0
 13 40  1  0  0  0
 14 15  3  0  0  0
 16 17  2  0  0  0
 16 18  1  0  0  0
 18 19  2  0  0  0
 18 23  1  0  0  0
 19 20  1  0  0  0
 19 41  1  0  0  0
 20 21  2  0  0  0
 20 42  1  0  0  0
 21 22  1  0  0  0
 21 43  1  0  0  0
 22 23  2  0  0  0
 22 44  1  0  0  0
 23 45  1  0  0  0
 24 25  2  0  0  0
 24 28  1  0  0  0
 25 26  1  0  0  0
 25 46  1  0  0  0
 26 27  2  0  0  0
 26 47  1  0  0  0
 27 28  1  0  0  0
 28 29  1  0  0  0
 29 48  1  0  0  0
 29 49  1  0  0  0
 29 50  1  0  0  0
M  END
> <chembl_id>
CHEMBL559248

> <chembl_pref_name>
None

> <i_m_ct_stereo_status>
1

> <s_m_source_file>
sdf/inactives_sanitized.sdf

> <i_m_source_file_index>
208

> <i_lp_mmshare_version>
49012

> <i_f3d_flags>
0

> <s_epik_input>
W0NIM11uMW5bY0hdW2NIXWMxLWMyW2NIXWMoW2NIXVtjSF1bY0hdMilbQ0gyXVtDQEBIXShDKD1PKVtOSF1bQ0gyXUMjTilbTkhdQyg9TyljM1tjSF1bY0hdW2NIXVtjSF1bY0hdMw==

> <s_epik_cmdline>
J2VwaWtfcHl0aG9uJywgJy1waHQnLCAnMC41JywgJy1waCcsICc3LjUnLCAnLW50JywgJy1tYScsICcyMDAnLCAnLWltYWUnLCAnPGluZmlsZS5tYWU+JywgJy1vbWFlJywgJzxvdXRmaWxlLm1hZT4n

> <r_lp_tautomer_probability>
1

> <r_epik_Ionization_Penalty>
  0.0001

> <r_epik_Ionization_Penalty_Charging>
  0.0000

> <r_epik_Ionization_Penalty_Neutral>
  0.0001

> <r_epik_State_Penalty>
 -0.0000

> <r_epik_Charging_Adjusted_Penalty>
0

> <i_epik_Tot_Q>
0

> <i_epik_Tot_abs_Q>
0

> <s_lp_Force_Field>
OPLS3e

> <r_lp_Energy>
29.10047

> <b_lp_Chiralities_Consistent>
1

> <s_lp_Variant>
sdf/inactives_sanitized.sdf:208-1

$$$$
sdf/inactives_sanitized.sdf:209
                    3D
 Schrodinger Suite 2020-1.
 68 71  0  0  1  0            999 V2000
   -0.5423   -0.8524   -0.8490 C   0  0  1  0  0  0
    0.0170   -0.3130    0.5183 C   0  0  1  0  0  0
   -0.4101   -1.1829    1.7464 C   0  0  0  0  0  0
   -0.4391   -2.7111    1.5430 C   0  0  0  0  0  0
   -1.2162   -3.1019    0.2784 C   0  0  0  0  0  0
   -0.6369   -2.3997   -0.9601 C   0  0  0  0  0  0
   -1.9357   -0.2450   -1.1575 C   0  0  0  0  0  0
   -2.6813    0.1265   -0.2491 O   0  0  0  0  0  0
   -2.2602   -0.1074   -2.4561 N   0  0  0  0  0  0
    1.5682   -0.2158    0.4002 C   0  0  0  0  0  0
    2.2135   -1.1686    0.8420 O   0  0  0  0  0  0
    2.1949    0.8638   -0.1880 N   0  0  0  0  0  0
    3.6568    1.0698   -0.0198 C   0  0  1  0  0  0
    3.8177    1.6826    1.4022 C   0  0  0  0  0  0
    2.9632    2.8585    1.7204 N   0  0  0  0  0  0
    1.6497    2.8832    1.0224 C   0  0  0  0  0  0
    1.6117    2.2151   -0.3793 C   0  0  2  0  0  0
    3.1381    3.5565    2.9272 C   0  0  0  0  0  0
    2.2189    4.5376    3.3444 C   0  0  0  0  0  0
    2.4049    5.2518    4.5245 C   0  0  0  0  0  0
    3.5250    5.0068    5.3148 C   0  0  0  0  0  0
    4.4612    4.0551    4.9182 C   0  0  0  0  0  0
    4.2693    3.3437    3.7376 C   0  0  0  0  0  0
    3.7711    5.9339    6.8271 S   0  0  0  0  0  0
    2.4481    6.3339    7.3191 O   0  0  0  0  0  0
    4.6763    5.1576    7.6819 O   0  0  0  0  0  0
    4.6815    7.4759    6.2376 C   0  0  0  0  0  0
    0.2874    2.4220   -1.1464 C   0  0  0  0  0  0
    4.6359   -0.0975   -0.2859 C   0  0  0  0  0  0
   -3.4851    0.5260   -2.9357 C   0  0  0  0  0  0
   -4.2513   -0.1557   -4.0494 C   0  0  0  0  0  0
   -4.8108   -0.1571   -2.6511 C   0  0  0  0  0  0
   -3.4706    1.9990   -2.8912 C   0  0  0  0  0  0
   -3.4573    3.1555   -2.8563 N   0  0  0  0  0  0
    0.0580   -0.5187   -1.6995 H   0  0  0  0  0  0
   -0.2824    0.6962    0.7764 H   0  0  0  0  0  0
    0.1632   -0.8994    2.6310 H   0  0  0  0  0  0
   -1.3883   -0.8261    2.0723 H   0  0  0  0  0  0
    0.5775   -3.1002    1.4803 H   0  0  0  0  0  0
   -0.8882   -3.1886    2.4147 H   0  0  0  0  0  0
   -1.1836   -4.1833    0.1412 H   0  0  0  0  0  0
   -2.2686   -2.8391    0.3951 H   0  0  0  0  0  0
    0.3607   -2.7763   -1.1918 H   0  0  0  0  0  0
   -1.1470   -2.6981   -1.8782 H   0  0  0  0  0  0
   -1.5643   -0.3262   -3.1538 H   0  0  0  0  0  0
    3.9902    1.8382   -0.7192 H   0  0  0  0  0  0
    3.6119    0.9024    2.1374 H   0  0  0  0  0  0
    4.8595    1.9955    1.4725 H   0  0  0  0  0  0
    0.9077    2.4044    1.6623 H   0  0  0  0  0  0
    1.3811    3.9260    0.8545 H   0  0  0  0  0  0
    2.3016    2.7951   -0.9947 H   0  0  0  0  0  0
    1.3359    4.7687    2.7694 H   0  0  0  0  0  0
    1.6782    5.9958    4.8171 H   0  0  0  0  0  0
    5.3389    3.8629    5.5180 H   0  0  0  0  0  0
    5.0233    2.6170    3.4785 H   0  0  0  0  0  0
    4.8934    8.1097    7.0983 H   0  0  0  0  0  0
    4.0501    8.0106    5.5289 H   0  0  0  0  0  0
    5.6129    7.1766    5.7576 H   0  0  0  0  0  0
    0.1828    3.4731   -1.4167 H   0  0  0  0  0  0
   -0.6068    2.2102   -0.5680 H   0  0  0  0  0  0
    0.2607    1.8432   -2.0693 H   0  0  0  0  0  0
    5.6630    0.2682   -0.2890 H   0  0  0  0  0  0
    4.4449   -0.5675   -1.2509 H   0  0  0  0  0  0
    4.6079   -0.8635    0.4878 H   0  0  0  0  0  0
   -4.7378    0.4613   -4.8055 H   0  0  0  0  0  0
   -3.8736   -1.0939   -4.4575 H   0  0  0  0  0  0
   -5.6846    0.4591   -2.4369 H   0  0  0  0  0  0
   -4.8177   -1.0954   -2.0950 H   0  0  0  0  0  0
  1  2  1  0  0  0
  1  6  1  0  0  0
  1  7  1  0  0  0
  1 35  1  0  0  0
  2  3  1  0  0  0
  2 10  1  0  0  0
  2 36  1  0  0  0
  3  4  1  0  0  0
  3 37  1  0  0  0
  3 38  1  0  0  0
  4  5  1  0  0  0
  4 39  1  0  0  0
  4 40  1  0  0  0
  5  6  1  0  0  0
  5 41  1  0  0  0
  5 42  1  0  0  0
  6 43  1  0  0  0
  6 44  1  0  0  0
  7  8  2  0  0  0
  7  9  1  0  0  0
  9 30  1  0  0  0
  9 45  1  0  0  0
 10 11  2  0  0  0
 10 12  1  0  0  0
 12 13  1  0  0  0
 12 17  1  0  0  0
 13 14  1  0  0  0
 13 29  1  0  0  0
 13 46  1  0  0  0
 14 15  1  0  0  0
 14 47  1  0  0  0
 14 48  1  0  0  0
 15 16  1  0  0  0
 15 18  1  0  0  0
 16 17  1  0  0  0
 16 49  1  0  0  0
 16 50  1  0  0  0
 17 28  1  0  0  0
 17 51  1  0  0  0
 18 19  2  0  0  0
 18 23  1  0  0  0
 19 20  1  0  0  0
 19 52  1  0  0  0
 20 21  2  0  0  0
 20 53  1  0  0  0
 21 22  1  0  0  0
 21 24  1  0  0  0
 22 23  2  0  0  0
 22 54  1  0  0  0
 23 55  1  0  0  0
 24 25  2  0  0  0
 24 26  2  0  0  0
 24 27  1  0  0  0
 27 56  1  0  0  0
 27 57  1  0  0  0
 27 58  1  0  0  0
 28 59  1  0  0  0
 28 60  1  0  0  0
 28 61  1  0  0  0
 29 62  1  0  0  0
 29 63  1  0  0  0
 29 64  1  0  0  0
 30 31  1  0  0  0
 30 32  1  0  0  0
 30 33  1  0  0  0
 31 32  1  0  0  0
 31 65  1  0  0  0
 31 66  1  0  0  0
 32 67  1  0  0  0
 32 68  1  0  0  0
 33 34  3  0  0  0
M  END
> <chembl_id>
CHEMBL2171997

> <chembl_pref_name>
None

> <i_m_ct_stereo_status>
1

> <s_m_source_file>
sdf/inactives_sanitized.sdf

> <i_m_source_file_index>
209

> <i_lp_mmshare_version>
49012

> <i_f3d_flags>
0

> <s_epik_input>
W0NIMl0xW0NIMl1DMShDI04pW05IXUMoPU8pW0NASF0yW0NAQEhdKFtDSDJdW0NIMl1bQ0gyXVtDSDJdMilDKD1PKU4zW0NASF0oW0NIM10pW0NIMl1OKFtDSDJdW0NAQEhdM1tDSDNdKWM0W2NIXVtjSF1jKFtjSF1bY0hdNClTKD1PKSg9TylbQ0gzXQ==

> <s_epik_cmdline>
J2VwaWtfcHl0aG9uJywgJy1waHQnLCAnMC41JywgJy1waCcsICc3LjUnLCAnLW50JywgJy1tYScsICcyMDAnLCAnLWltYWUnLCAnPGluZmlsZS5tYWU+JywgJy1vbWFlJywgJzxvdXRmaWxlLm1hZT4n

> <r_lp_tautomer_probability>
1

> <r_epik_Ionization_Penalty>
  0.0000

> <r_epik_Ionization_Penalty_Charging>
  0.0000

> <r_epik_Ionization_Penalty_Neutral>
  0.0000

> <r_epik_State_Penalty>
 -0.0000

> <r_epik_Charging_Adjusted_Penalty>
0

> <i_epik_Tot_Q>
0

> <i_epik_Tot_abs_Q>
0

> <s_lp_Force_Field>
OPLS3e

> <r_lp_Energy>
63.849615

> <b_lp_Chiralities_Consistent>
1

> <s_lp_Variant>
sdf/inactives_sanitized.sdf:209-1

$$$$
sdf/inactives_sanitized.sdf:210
                    3D
 Schrodinger Suite 2020-1.
 68 71  0  0  1  0            999 V2000
   -0.3430   -2.5657   -0.8733 C   0  0  0  0  0  0
   -0.7891   -1.2573   -0.1982 C   0  0  0  0  0  0
   -0.1172    0.0111   -0.7887 C   0  0  2  0  0  0
    1.3405    0.0015   -0.6011 N   0  0  0  0  0  0
    2.2520   -0.1650   -1.5751 C   0  0  0  0  0  0
    1.9562   -0.2524   -2.7683 O   0  0  0  0  0  0
    3.7298   -0.1298   -1.1357 C   0  0  2  0  0  0
    4.4647    1.1401   -1.6110 C   0  0  0  0  0  0
    5.7892    0.6483   -2.1876 C   0  0  2  0  0  0
    5.4718   -0.7613   -2.6937 C   0  0  0  0  0  0
    4.4959   -1.2519   -1.7153 N   0  0  0  0  0  0
    4.5562   -2.4764   -1.1282 C   0  0  0  0  0  0
    3.9178   -2.7457   -0.1083 O   0  0  0  0  0  0
    5.4072   -3.6009   -1.7623 C   0  0  0  0  0  0
    4.5920   -4.7825   -2.2598 C   0  0  0  0  0  0
    5.2445   -3.8466   -3.2545 C   0  0  0  0  0  0
    6.7581   -3.8847   -1.0566 C   0  0  0  0  0  0
    7.4316   -4.8796   -1.6365 F   0  0  0  0  0  0
    7.5556   -2.8178   -1.0784 F   0  0  0  0  0  0
    6.5815   -4.2311    0.2190 F   0  0  0  0  0  0
    7.1339    0.5864   -0.8321 S   0  0  0  0  0  0
    6.5763   -0.0837    0.3494 O   0  0  0  0  0  0
    8.3677    0.0591   -1.4228 O   0  0  0  0  0  0
    7.4118    2.3231   -0.3829 C   0  0  0  0  0  0
    6.6902    2.7949    0.7236 C   0  0  0  0  0  0
    6.8316    4.1033    1.1737 C   0  0  0  0  0  0
    7.7048    4.9657    0.5243 C   0  0  0  0  0  0
    8.4281    4.5187   -0.5773 C   0  0  0  0  0  0
    8.2942    3.2057   -1.0601 C   0  0  0  0  0  0
    9.1404    2.8048   -2.2806 C   0  0  0  0  0  0
    9.6455    3.8658   -2.9142 F   0  0  0  0  0  0
   10.1678    2.0552   -1.8825 F   0  0  0  0  0  0
    8.4282    2.1345   -3.1831 F   0  0  0  0  0  0
   -0.5952    1.2987   -0.1182 C   0  0  0  0  0  0
   -1.2860    1.3192    0.9057 O   0  0  0  0  0  0
   -0.1957    2.6572   -0.8446 C   0  0  0  0  0  0
    0.3654    2.6637   -1.9420 O   0  0  0  0  0  0
   -0.5379    3.7437   -0.1283 N   0  0  0  0  0  0
   -0.1859    5.1113   -0.4948 C   0  0  0  0  0  0
   -1.2512    6.1786   -0.4054 C   0  0  0  0  0  0
   -0.7639    5.7160   -1.7575 C   0  0  0  0  0  0
   -0.8767   -3.4196   -0.4554 H   0  0  0  0  0  0
    0.7234   -2.7468   -0.7338 H   0  0  0  0  0  0
   -0.5403   -2.5442   -1.9455 H   0  0  0  0  0  0
   -1.8738   -1.1765   -0.2901 H   0  0  0  0  0  0
   -0.5750   -1.3365    0.8696 H   0  0  0  0  0  0
   -0.3879    0.0525   -1.8468 H   0  0  0  0  0  0
    1.6551    0.0411    0.3576 H   0  0  0  0  0  0
    3.7195   -0.2001   -0.0458 H   0  0  0  0  0  0
    3.9386    1.6457   -2.4240 H   0  0  0  0  0  0
    4.5807    1.8824   -0.8230 H   0  0  0  0  0  0
    6.1896    1.2938   -2.9664 H   0  0  0  0  0  0
    4.9348   -0.6402   -3.6357 H   0  0  0  0  0  0
    6.3675   -1.3642   -2.8454 H   0  0  0  0  0  0
    4.9961   -5.7876   -2.1358 H   0  0  0  0  0  0
    3.5050   -4.7706   -2.1620 H   0  0  0  0  0  0
    6.1075   -4.1940   -3.8229 H   0  0  0  0  0  0
    4.6021   -3.1964   -3.8498 H   0  0  0  0  0  0
    6.0061    2.1475    1.2521 H   0  0  0  0  0  0
    6.2677    4.4456    2.0290 H   0  0  0  0  0  0
    7.8236    5.9805    0.8745 H   0  0  0  0  0  0
    9.1020    5.2165   -1.0526 H   0  0  0  0  0  0
   -0.9455    3.6083    0.7857 H   0  0  0  0  0  0
    0.8379    5.3807   -0.2323 H   0  0  0  0  0  0
   -2.2523    5.8957   -0.0783 H   0  0  0  0  0  0
   -0.9615    7.1657   -0.0450 H   0  0  0  0  0  0
   -1.4218    5.1083   -2.3792 H   0  0  0  0  0  0
   -0.1286    6.3754   -2.3489 H   0  0  0  0  0  0
  1  2  1  0  0  0
  1 42  1  0  0  0
  1 43  1  0  0  0
  1 44  1  0  0  0
  2  3  1  0  0  0
  2 45  1  0  0  0
  2 46  1  0  0  0
  3  4  1  0  0  0
  3 34  1  0  0  0
  3 47  1  0  0  0
  4  5  1  0  0  0
  4 48  1  0  0  0
  5  6  2  0  0  0
  5  7  1  0  0  0
  7  8  1  0  0  0
  7 11  1  0  0  0
  7 49  1  0  0  0
  8  9  1  0  0  0
  8 50  1  0  0  0
  8 51  1  0  0  0
  9 10  1  0  0  0
  9 21  1  0  0  0
  9 52  1  0  0  0
 10 11  1  0  0  0
 10 53  1  0  0  0
 10 54  1  0  0  0
 11 12  1  0  0  0
 12 13  2  0  0  0
 12 14  1  0  0  0
 14 15  1  0  0  0
 14 16  1  0  0  0
 14 17  1  0  0  0
 15 16  1  0  0  0
 15 55  1  0  0  0
 15 56  1  0  0  0
 16 57  1  0  0  0
 16 58  1  0  0  0
 17 18  1  0  0  0
 17 19  1  0  0  0
 17 20  1  0  0  0
 21 22  2  0  0  0
 21 23  2  0  0  0
 21 24  1  0  0  0
 24 25  2  0  0  0
 24 29  1  0  0  0
 25 26  1  0  0  0
 25 59  1  0  0  0
 26 27  2  0  0  0
 26 60  1  0  0  0
 27 28  1  0  0  0
 27 61  1  0  0  0
 28 29  2  0  0  0
 28 62  1  0  0  0
 29 30  1  0  0  0
 30 31  1  0  0  0
 30 32  1  0  0  0
 30 33  1  0  0  0
 34 35  2  0  0  0
 34 36  1  0  0  0
 36 37  2  0  0  0
 36 38  1  0  0  0
 38 39  1  0  0  0
 38 63  1  0  0  0
 39 40  1  0  0  0
 39 41  1  0  0  0
 39 64  1  0  0  0
 40 41  1  0  0  0
 40 65  1  0  0  0
 40 66  1  0  0  0
 41 67  1  0  0  0
 41 68  1  0  0  0
M  END
> <chembl_id>
CHEMBL3649368

> <chembl_pref_name>
None

> <i_m_ct_stereo_status>
1

> <s_m_source_file>
sdf/inactives_sanitized.sdf

> <i_m_source_file_index>
210

> <i_lp_mmshare_version>
49012

> <i_f3d_flags>
0

> <s_epik_input>
W0NIMl0xW0NIMl1bQ0hdMVtOSF1DKD1PKUMoPU8pW0NASF0oW0NIMl1bQ0gzXSlbTkhdQyg9TylbQ0BASF0yW0NIMl1bQ0BIXShbQ0gyXU4yQyg9TylDMyhDKEYpKEYpRilbQ0gyXVtDSDJdMylTKD1PKSg9TyljNFtjSF1bY0hdW2NIXVtjSF1jNEMoRikoRilG

> <s_epik_cmdline>
J2VwaWtfcHl0aG9uJywgJy1waHQnLCAnMC41JywgJy1waCcsICc3LjUnLCAnLW50JywgJy1tYScsICcyMDAnLCAnLWltYWUnLCAnPGluZmlsZS5tYWU+JywgJy1vbWFlJywgJzxvdXRmaWxlLm1hZT4n

> <r_lp_tautomer_probability>
1

> <r_epik_Ionization_Penalty>
  0.0000

> <r_epik_Ionization_Penalty_Charging>
  0.0000

> <r_epik_Ionization_Penalty_Neutral>
  0.0000

> <r_epik_State_Penalty>
 -0.0000

> <r_epik_Charging_Adjusted_Penalty>
0

> <i_epik_Tot_Q>
0

> <i_epik_Tot_abs_Q>
0

> <s_lp_Force_Field>
OPLS3e

> <r_lp_Energy>
41.112615

> <b_lp_Chiralities_Consistent>
1

> <s_lp_Variant>
sdf/inactives_sanitized.sdf:210-1

$$$$
sdf/inactives_sanitized.sdf:211
                    3D
 Schrodinger Suite 2020-1.
 45 44  0  0  1  0            999 V2000
   -0.1396    1.7035   -0.4255 C   0  0  1  0  0  0
   -0.5147    2.5617    0.8119 C   0  0  0  0  0  0
    0.4915    2.6646    1.6813 F   0  0  0  0  0  0
   -0.8391    3.8032    0.4497 F   0  0  0  0  0  0
   -1.5611    2.0578    1.4690 F   0  0  0  0  0  0
    0.2464    0.3481   -0.0121 N   0  0  1  0  0  0
    1.6967    0.1449    0.2263 C   0  0  1  0  0  0
    1.9173   -1.0350    1.2123 C   0  0  0  0  0  0
    2.3625   -0.0987   -1.1501 C   0  0  0  0  0  0
    2.1171   -1.1287   -1.7810 O   0  0  0  0  0  0
    3.1930    0.8620   -1.5880 N   0  0  0  0  0  0
    3.8779    0.8236   -2.8763 C   0  0  0  0  0  0
    2.9565    0.8951   -4.0247 C   0  0  0  0  0  0
    3.3892   -1.3964    1.5363 C   0  0  0  0  0  0
    3.4645   -2.6521    2.4312 C   0  0  0  0  0  0
    4.1728   -0.2078    2.1333 C   0  0  0  0  0  0
    2.2346    0.9519   -4.9272 N   0  0  0  0  0  0
   -1.2816    1.6118   -1.4673 C   0  0  0  0  0  0
   -0.8769    0.9185   -2.7851 C   0  0  0  0  0  0
   -2.0073    0.8946   -3.8279 C   0  0  0  0  0  0
   -1.5881    0.2247   -5.1436 C   0  0  0  0  0  0
    0.7076    2.1927   -0.9090 H   0  0  0  0  0  0
   -0.2351    0.1601    0.8563 H   0  0  0  0  0  0
    2.1294    1.0335    0.6892 H   0  0  0  0  0  0
    1.4017   -1.9204    0.8340 H   0  0  0  0  0  0
    1.4148   -0.7973    2.1516 H   0  0  0  0  0  0
    3.3172    1.6952   -1.0314 H   0  0  0  0  0  0
    4.5586    1.6724   -2.9395 H   0  0  0  0  0  0
    4.4834   -0.0799   -2.9657 H   0  0  0  0  0  0
    3.8785   -1.6668    0.5998 H   0  0  0  0  0  0
    2.4861   -3.1123    2.5736 H   0  0  0  0  0  0
    3.8569   -2.4381    3.4256 H   0  0  0  0  0  0
    4.1103   -3.4077    1.9832 H   0  0  0  0  0  0
    4.8297   -0.5062    2.9500 H   0  0  0  0  0  0
    3.5097    0.5644    2.5236 H   0  0  0  0  0  0
    4.8031    0.2557    1.3740 H   0  0  0  0  0  0
   -2.1388    1.0928   -1.0344 H   0  0  0  0  0  0
   -1.6290    2.6186   -1.7038 H   0  0  0  0  0  0
   -0.0104    1.4308   -3.2048 H   0  0  0  0  0  0
   -0.5573   -0.1050   -2.5834 H   0  0  0  0  0  0
   -2.8719    0.3700   -3.4187 H   0  0  0  0  0  0
   -2.3373    1.9133   -4.0362 H   0  0  0  0  0  0
   -2.4128    0.2164   -5.8566 H   0  0  0  0  0  0
   -1.2797   -0.8087   -4.9814 H   0  0  0  0  0  0
   -0.7548    0.7530   -5.6083 H   0  0  0  0  0  0
  1  6  1  0  0  0
  1  2  1  0  0  0
  1 18  1  0  0  0
  1 22  1  0  0  0
  2  4  1  0  0  0
  2  5  1  0  0  0
  2  3  1  0  0  0
  6  7  1  0  0  0
  6 23  1  0  0  0
  7  8  1  0  0  0
  7  9  1  0  0  0
  7 24  1  0  0  0
  8 14  1  0  0  0
  8 25  1  0  0  0
  8 26  1  0  0  0
  9 11  1  0  0  0
  9 10  2  0  0  0
 11 12  1  0  0  0
 11 27  1  0  0  0
 12 13  1  0  0  0
 12 28  1  0  0  0
 12 29  1  0  0  0
 13 17  3  0  0  0
 14 15  1  0  0  0
 14 16  1  0  0  0
 14 30  1  0  0  0
 15 31  1  0  0  0
 15 32  1  0  0  0
 15 33  1  0  0  0
 16 34  1  0  0  0
 16 35  1  0  0  0
 16 36  1  0  0  0
 18 19  1  0  0  0
 18 37  1  0  0  0
 18 38  1  0  0  0
 19 20  1  0  0  0
 19 39  1  0  0  0
 19 40  1  0  0  0
 20 21  1  0  0  0
 20 41  1  0  0  0
 20 42  1  0  0  0
 21 43  1  0  0  0
 21 44  1  0  0  0
 21 45  1  0  0  0
M  END
> <chembl_id>
CHEMBL206169

> <chembl_pref_name>
None

> <i_m_ct_stereo_status>
1

> <s_m_source_file>
sdf/inactives_sanitized.sdf

> <i_m_source_file_index>
211

> <i_lp_mmshare_version>
49012

> <i_f3d_flags>
0

> <s_epik_input>
W0NIM11bQ0gyXVtDSDJdW0NIMl1bQ0BASF0oQyhGKShGKUYpW05IXVtDQEBIXShbQ0gyXVtDSF0oW0NIM10pW0NIM10pQyg9TylbTkhdW0NIMl1DI04=

> <s_epik_cmdline>
J2VwaWtfcHl0aG9uJywgJy1waHQnLCAnMC41JywgJy1waCcsICc3LjUnLCAnLW50JywgJy1tYScsICcyMDAnLCAnLWltYWUnLCAnPGluZmlsZS5tYWU+JywgJy1vbWFlJywgJzxvdXRmaWxlLm1hZT4n

> <r_epik_Ionization_Penalty>
  0.0247

> <r_epik_Ionization_Penalty_Charging>
  0.0000

> <r_epik_Ionization_Penalty_Neutral>
  0.0247

> <r_epik_State_Penalty>
  0.0200

> <r_epik_Charging_Adjusted_Penalty>
0.0200249257063195

> <i_epik_Tot_Q>
0

> <i_epik_Tot_abs_Q>
0

> <s_lp_Force_Field>
OPLS3e

> <r_lp_Energy>
14.966508

> <b_lp_Chiralities_Consistent>
1

> <s_lp_Variant>
sdf/inactives_sanitized.sdf:211-1

$$$$
sdf/inactives_sanitized.sdf:212
                    3D
 Schrodinger Suite 2020-1.
 31 32  0  0  1  0            999 V2000
   -3.6239    3.2665    1.0713 C   0  0  0  0  0  0
   -2.3609    2.4237    1.4511 C   0  0  0  0  0  0
   -1.9516    1.3486    0.3982 C   0  0  1  0  0  0
   -2.3889    1.7311   -1.0557 C   0  0  1  0  0  0
   -3.6719    3.4160   -0.3949 N   0  0  0  0  0  0
   -3.8445    2.1495   -1.0808 C   0  0  0  0  0  0
   -2.6117    4.0269   -1.0593 C   0  0  0  0  0  0
   -1.8302    2.9810   -1.4648 O   0  0  0  0  0  0
   -2.3260    5.2113   -1.2213 O   0  0  0  0  0  0
   -0.5410    1.1402    0.4510 O   0  0  0  0  0  0
   -0.0598   -0.0675   -0.1329 C   0  0  0  0  0  0
    1.4774   -0.1184   -0.0214 C   0  0  0  0  0  0
    2.1496    1.0682   -0.7393 C   0  0  0  0  0  0
    2.0296   -1.4599   -0.5352 C   0  0  0  0  0  0
   -3.6022    4.2553    1.5317 H   0  0  0  0  0  0
   -4.5414    2.7641    1.3806 H   0  0  0  0  0  0
   -2.5278    1.9679    2.4275 H   0  0  0  0  0  0
   -1.5284    3.1175    1.5804 H   0  0  0  0  0  0
   -2.4107    0.4039    0.6982 H   0  0  0  0  0  0
   -2.1805    0.9407   -1.7762 H   0  0  0  0  0  0
   -4.2213    2.2826   -2.0979 H   0  0  0  0  0  0
   -4.5034    1.4581   -0.5532 H   0  0  0  0  0  0
   -0.4978   -0.9191    0.3913 H   0  0  0  0  0  0
   -0.3544   -0.1391   -1.1805 H   0  0  0  0  0  0
    1.7325   -0.0505    1.0375 H   0  0  0  0  0  0
    1.9258    1.0667   -1.8070 H   0  0  0  0  0  0
    3.2340    1.0351   -0.6278 H   0  0  0  0  0  0
    1.8135    2.0230   -0.3331 H   0  0  0  0  0  0
    1.8116   -1.6024   -1.5944 H   0  0  0  0  0  0
    1.5959   -2.3005    0.0079 H   0  0  0  0  0  0
    3.1115   -1.5162   -0.4091 H   0  0  0  0  0  0
  1  5  1  0  0  0
  1  2  1  0  0  0
  1 15  1  0  0  0
  1 16  1  0  0  0
  2  3  1  0  0  0
  2 17  1  0  0  0
  2 18  1  0  0  0
  3  4  1  0  0  0
  3 10  1  0  0  0
  3 19  1  0  0  0
  4  8  1  0  0  0
  4  6  1  0  0  0
  4 20  1  0  0  0
  5  6  1  0  0  0
  5  7  1  0  0  0
  6 21  1  0  0  0
  6 22  1  0  0  0
  7  8  1  0  0  0
  7  9  2  0  0  0
 10 11  1  0  0  0
 11 12  1  0  0  0
 11 23  1  0  0  0
 11 24  1  0  0  0
 12 13  1  0  0  0
 12 14  1  0  0  0
 12 25  1  0  0  0
 13 26  1  0  0  0
 13 27  1  0  0  0
 13 28  1  0  0  0
 14 29  1  0  0  0
 14 30  1  0  0  0
 14 31  1  0  0  0
M  END
> <chembl_id>
CHEMBL230478

> <chembl_pref_name>
None

> <i_m_ct_stereo_status>
1

> <s_m_source_file>
sdf/inactives_sanitized.sdf

> <i_m_source_file_index>
212

> <i_lp_mmshare_version>
49012

> <i_f3d_flags>
0

> <s_epik_input>
TzFDKD1PKU4oW0NIMl0yKVtDSDJdW0NIMl1bQ0BASF0oW0NASF0xMilPW0NIMl1bQ0hdKFtDSDNdKVtDSDNd

> <s_epik_cmdline>
J2VwaWtfcHl0aG9uJywgJy1waHQnLCAnMC41JywgJy1waCcsICc3LjUnLCAnLW50JywgJy1tYScsICcyMDAnLCAnLWltYWUnLCAnPGluZmlsZS5tYWU+JywgJy1vbWFlJywgJzxvdXRmaWxlLm1hZT4n

> <r_lp_tautomer_probability>
1

> <r_epik_Ionization_Penalty>
  0.0000

> <r_epik_Ionization_Penalty_Charging>
  0.0000

> <r_epik_Ionization_Penalty_Neutral>
  0.0000

> <r_epik_State_Penalty>
 -0.0000

> <r_epik_Charging_Adjusted_Penalty>
0

> <i_epik_Tot_Q>
0

> <i_epik_Tot_abs_Q>
0

> <s_epik_Chemistry_Notes>
This compound has an ester and may undergo hydrolysis at high or low pH.

> <s_lp_Force_Field>
OPLS3e

> <r_lp_Energy>
25.008652

> <b_lp_Chiralities_Consistent>
1

> <s_lp_Variant>
sdf/inactives_sanitized.sdf:212-1

$$$$
sdf/inactives_sanitized.sdf:213
                    3D
 Schrodinger Suite 2020-1.
 32 34  0  0  1  0            999 V2000
   -2.4349    2.6054   -1.0656 C   0  0  0  0  0  0
   -1.2081    1.6361   -1.1406 C   0  0  0  0  0  0
   -0.5384    1.3343    0.2384 C   0  0  1  0  0  0
   -1.5435    1.4255    1.4278 C   0  0  1  0  0  0
   -3.1339    2.3868    0.2149 N   0  0  0  0  0  0
   -2.3187    2.7263    1.3663 C   0  0  0  0  0  0
   -3.6415    1.1254    0.5134 C   0  0  0  0  0  0
   -2.6546    0.5417    1.2585 O   0  0  0  0  0  0
   -4.6710    0.5557    0.1579 O   0  0  0  0  0  0
    0.0687    0.0467    0.3136 O   0  0  0  0  0  0
    1.2035   -0.1489   -0.5263 C   0  0  0  0  0  0
    1.8092   -1.5215   -0.2680 C   0  0  0  0  0  0
    2.2150   -2.3170   -1.3437 C   0  0  0  0  0  0
    2.7773   -3.5696   -1.1110 C   0  0  0  0  0  0
    2.9362   -4.0227    0.1969 C   0  0  0  0  0  0
    2.5396   -3.2338    1.2746 C   0  0  0  0  0  0
    1.9775   -1.9812    1.0423 C   0  0  0  0  0  0
   -3.1325    2.4384   -1.8876 H   0  0  0  0  0  0
   -2.1166    3.6484   -1.0913 H   0  0  0  0  0  0
   -1.5535    0.6941   -1.5697 H   0  0  0  0  0  0
   -0.4846    2.0469   -1.8452 H   0  0  0  0  0  0
    0.2672    2.0521    0.4075 H   0  0  0  0  0  0
   -1.0512    1.2768    2.3893 H   0  0  0  0  0  0
   -2.9229    2.8933    2.2616 H   0  0  0  0  0  0
   -1.6860    3.6004    1.2051 H   0  0  0  0  0  0
    0.9110   -0.0618   -1.5741 H   0  0  0  0  0  0
    1.9670    0.6053   -0.3288 H   0  0  0  0  0  0
    2.0945   -1.9691   -2.3595 H   0  0  0  0  0  0
    3.0891   -4.1870   -1.9406 H   0  0  0  0  0  0
    3.3721   -4.9943    0.3774 H   0  0  0  0  0  0
    2.6677   -3.5915    2.2856 H   0  0  0  0  0  0
    1.6732   -1.3704    1.8801 H   0  0  0  0  0  0
  1  5  1  0  0  0
  1  2  1  0  0  0
  1 18  1  0  0  0
  1 19  1  0  0  0
  2  3  1  0  0  0
  2 20  1  0  0  0
  2 21  1  0  0  0
  3  4  1  0  0  0
  3 10  1  0  0  0
  3 22  1  0  0  0
  4  6  1  0  0  0
  4  8  1  0  0  0
  4 23  1  0  0  0
  5  6  1  0  0  0
  5  7  1  0  0  0
  6 24  1  0  0  0
  6 25  1  0  0  0
  7  9  2  0  0  0
  7  8  1  0  0  0
 10 11  1  0  0  0
 11 12  1  0  0  0
 11 26  1  0  0  0
 11 27  1  0  0  0
 12 13  2  0  0  0
 12 17  1  0  0  0
 13 14  1  0  0  0
 13 28  1  0  0  0
 14 15  2  0  0  0
 14 29  1  0  0  0
 15 16  1  0  0  0
 15 30  1  0  0  0
 16 17  2  0  0  0
 16 31  1  0  0  0
 17 32  1  0  0  0
M  END
> <chembl_id>
CHEMBL390475

> <chembl_pref_name>
None

> <i_m_ct_stereo_status>
1

> <s_m_source_file>
sdf/inactives_sanitized.sdf

> <i_m_source_file_index>
213

> <i_lp_mmshare_version>
49012

> <i_f3d_flags>
0

> <s_epik_input>
TzFDKD1PKU4oW0NIMl0yKVtDSDJdW0NIMl1bQ0BASF0oW0NASF0xMilPW0NIMl1jM1tjSF1bY0hdW2NIXVtjSF1bY0hdMw==

> <s_epik_cmdline>
J2VwaWtfcHl0aG9uJywgJy1waHQnLCAnMC41JywgJy1waCcsICc3LjUnLCAnLW50JywgJy1tYScsICcyMDAnLCAnLWltYWUnLCAnPGluZmlsZS5tYWU+JywgJy1vbWFlJywgJzxvdXRmaWxlLm1hZT4n

> <r_lp_tautomer_probability>
1

> <r_epik_Ionization_Penalty>
  0.0000

> <r_epik_Ionization_Penalty_Charging>
  0.0000

> <r_epik_Ionization_Penalty_Neutral>
  0.0000

> <r_epik_State_Penalty>
 -0.0000

> <r_epik_Charging_Adjusted_Penalty>
0

> <i_epik_Tot_Q>
0

> <i_epik_Tot_abs_Q>
0

> <s_epik_Chemistry_Notes>
This compound has an ester and may undergo hydrolysis at high or low pH.

> <s_lp_Force_Field>
OPLS3e

> <r_lp_Energy>
33.712554

> <b_lp_Chiralities_Consistent>
1

> <s_lp_Variant>
sdf/inactives_sanitized.sdf:213-1

$$$$
sdf/inactives_sanitized.sdf:214
                    3D
 Schrodinger Suite 2020-1.
 38 40  0  0  1  0            999 V2000
   -0.6621    1.2477   -0.0246 C   0  0  0  0  0  0
    0.0073    0.0345    0.0258 N   0  0  0  0  0  0
   -0.5505   -1.2314    0.1747 C   0  0  0  0  0  0
   -1.9379   -1.1951    0.0892 N   0  0  0  0  0  0
   -2.7131   -0.0381    0.1905 N   0  0  0  0  0  0
   -2.1112    1.0882    0.1090 C   0  0  0  0  0  0
    0.1030   -2.2702    0.3231 O   0  0  0  0  0  0
   -2.9406    2.2736    0.1643 C   0  0  0  0  0  0
   -3.6380    3.1962    0.2206 N   0  0  0  0  0  0
   -0.1254    2.3514   -0.1529 O   0  0  0  0  0  0
    1.4875    0.0965   -0.0805 C   0  0  0  0  0  0
   -2.6911   -2.3959    0.0430 C   0  0  0  0  0  0
   -2.4179   -3.3746   -0.9255 C   0  0  0  0  0  0
   -3.1629   -4.5512   -0.9707 C   0  0  0  0  0  0
   -4.1910   -4.7637   -0.0541 C   0  0  0  0  0  0
   -4.4872   -3.7998    0.9171 C   0  0  0  0  0  0
   -3.7338   -2.6201    0.9572 C   0  0  0  0  0  0
   -5.6154   -4.0261    1.9226 C   0  0  0  0  0  0
   -6.2228   -2.8791    2.2325 F   0  0  0  0  0  0
   -6.5383   -4.8650    1.4484 F   0  0  0  0  0  0
   -5.1028   -4.5490    3.0360 F   0  0  0  0  0  0
    2.0129    0.0535   -1.5115 C   0  0  0  0  0  0
    2.3204    1.2433   -2.1767 C   0  0  0  0  0  0
    2.8253    1.2041   -3.4737 C   0  0  0  0  0  0
    3.0317   -0.0248   -4.0969 C   0  0  0  0  0  0
    2.7403   -1.2152   -3.4340 C   0  0  0  0  0  0
    2.2346   -1.1763   -2.1373 C   0  0  0  0  0  0
    1.9588   -0.7128    0.4805 H   0  0  0  0  0  0
    1.8706    0.9953    0.4070 H   0  0  0  0  0  0
   -1.6290   -3.2256   -1.6492 H   0  0  0  0  0  0
   -2.9435   -5.2995   -1.7180 H   0  0  0  0  0  0
   -4.7547   -5.6841   -0.1029 H   0  0  0  0  0  0
   -3.9537   -1.8783    1.7122 H   0  0  0  0  0  0
    2.1668    2.1970   -1.6931 H   0  0  0  0  0  0
    3.0591    2.1222   -3.9925 H   0  0  0  0  0  0
    3.4263   -0.0551   -5.1020 H   0  0  0  0  0  0
    2.9097   -2.1637   -3.9221 H   0  0  0  0  0  0
    2.0165   -2.1008   -1.6230 H   0  0  0  0  0  0
  1  2  1  0  0  0
  1 10  2  0  0  0
  1  6  1  0  0  0
  2  3  1  0  0  0
  2 11  1  0  0  0
  3  7  2  0  0  0
  3  4  1  0  0  0
  4  5  1  0  0  0
  4 12  1  0  0  0
  5  6  2  0  0  0
  6  8  1  0  0  0
  8  9  3  0  0  0
 11 22  1  0  0  0
 11 28  1  0  0  0
 11 29  1  0  0  0
 12 17  2  0  0  0
 12 13  1  0  0  0
 13 14  2  0  0  0
 13 30  1  0  0  0
 14 15  1  0  0  0
 14 31  1  0  0  0
 15 16  2  0  0  0
 15 32  1  0  0  0
 16 17  1  0  0  0
 16 18  1  0  0  0
 17 33  1  0  0  0
 18 19  1  0  0  0
 18 20  1  0  0  0
 18 21  1  0  0  0
 22 23  2  0  0  0
 22 27  1  0  0  0
 23 24  1  0  0  0
 23 34  1  0  0  0
 24 25  2  0  0  0
 24 35  1  0  0  0
 25 26  1  0  0  0
 25 36  1  0  0  0
 26 27  2  0  0  0
 26 37  1  0  0  0
 27 38  1  0  0  0
M  END
> <chembl_id>
CHEMBL1079013

> <chembl_pref_name>
None

> <s_m_source_file>
sdf/inactives_sanitized.sdf

> <i_m_source_file_index>
214

> <i_lp_mmshare_version>
49012

> <i_m_ct_stereo_status>
1

> <i_f3d_flags>
0

> <s_epik_input>
W2NIXTFbY0hdW2NIXVtjSF1bY0hdYzFbQ0gyXW4oYzI9TyljKD1PKW4obmMyQyNOKS1jM1tjSF1bY0hdW2NIXWMoW2NIXTMpQyhGKShGKUY=

> <s_epik_cmdline>
J2VwaWtfcHl0aG9uJywgJy1waHQnLCAnMC41JywgJy1waCcsICc3LjUnLCAnLW50JywgJy1tYScsICcyMDAnLCAnLWltYWUnLCAnPGluZmlsZS5tYWU+JywgJy1vbWFlJywgJzxvdXRmaWxlLm1hZT4n

> <r_lp_tautomer_probability>
1

> <r_epik_Ionization_Penalty>
  0.0000

> <r_epik_Ionization_Penalty_Charging>
  0.0000

> <r_epik_Ionization_Penalty_Neutral>
  0.0000

> <r_epik_State_Penalty>
 -0.0000

> <r_epik_Charging_Adjusted_Penalty>
1.05772847526841e-12

> <i_epik_Tot_Q>
0

> <i_epik_Tot_abs_Q>
0

> <s_lp_Force_Field>
OPLS3e

> <r_lp_Energy>
64.419421

> <b_lp_Chiralities_Consistent>
1

> <s_lp_Variant>
sdf/inactives_sanitized.sdf:214-1

$$$$
sdf/inactives_sanitized.sdf:215
                    3D
 Schrodinger Suite 2020-1.
 49 50  0  0  1  0            999 V2000
    0.0800   -0.0185   -0.0891 C   0  0  2  0  0  0
   -0.6399   -0.8684   -1.1594 C   0  0  0  0  0  0
   -0.4701    1.4156   -0.0923 C   0  0  0  0  0  0
    0.7387    7.3445   -5.4063 C   0  0  0  0  0  0
   -0.5543   -4.4041   -2.8614 N   0  0  0  0  0  0
   -0.1513    2.3170   -1.1185 C   0  0  0  0  0  0
   -0.6552    3.6264   -1.1325 C   0  0  0  0  0  0
   -1.2659   -3.6882   -2.2955 C   0  0  0  0  0  0
    0.3718    6.3651   -4.3110 C   0  0  0  0  0  0
   -0.3016    4.5740   -2.2329 C   0  0  0  0  0  0
    1.6309   -0.0635   -0.2269 C   0  0  0  0  0  0
   -0.4501   -0.6531   -2.3577 O   0  0  0  0  0  0
    1.1084    8.4896   -5.1481 O   0  0  0  0  0  0
    0.1915    6.8252   -3.0007 C   0  0  0  0  0  0
    0.2140    4.9955   -4.5696 C   0  0  0  0  0  0
   -0.1429    5.9416   -1.9784 C   0  0  0  0  0  0
   -0.1181    4.1156   -3.5432 C   0  0  0  0  0  0
   -1.4577   -1.8376   -0.7135 N   0  0  0  0  0  0
    0.6438    6.9183   -6.6709 N   0  0  0  0  0  0
   -2.1717   -2.7767   -1.5738 C   0  0  0  0  0  0
   -1.3227    1.8366    0.9337 C   0  0  0  0  0  0
   -1.4998    4.0179   -0.0838 C   0  0  0  0  0  0
   -1.8333    3.1321    0.9389 C   0  0  0  0  0  0
    2.2986   -1.4626   -0.1307 C   0  0  0  0  0  0
    2.0219   -2.1734    1.2089 C   0  0  0  0  0  0
    3.8129   -1.3650   -0.3916 C   0  0  0  0  0  0
   -0.1555   -0.4356    0.8918 H   0  0  0  0  0  0
    0.5032    1.9930   -1.9140 H   0  0  0  0  0  0
    1.9236    0.3859   -1.1773 H   0  0  0  0  0  0
    2.0651    0.5769    0.5429 H   0  0  0  0  0  0
    0.3082    7.8724   -2.7594 H   0  0  0  0  0  0
    0.3476    4.5921   -5.5629 H   0  0  0  0  0  0
   -0.2653    6.3316   -0.9787 H   0  0  0  0  0  0
   -0.2408    3.0689   -3.7803 H   0  0  0  0  0  0
   -1.5320   -1.9921    0.2814 H   0  0  0  0  0  0
    0.3318    5.9796   -6.8707 H   0  0  0  0  0  0
    0.8794    7.5383   -7.4319 H   0  0  0  0  0  0
   -2.7922   -2.2462   -2.2978 H   0  0  0  0  0  0
   -2.8394   -3.3815   -0.9604 H   0  0  0  0  0  0
   -1.5928    1.1620    1.7331 H   0  0  0  0  0  0
   -1.9180    5.0136   -0.0602 H   0  0  0  0  0  0
   -2.4905    3.4500    1.7349 H   0  0  0  0  0  0
    1.8883   -2.0917   -0.9223 H   0  0  0  0  0  0
    2.3561   -1.5728    2.0558 H   0  0  0  0  0  0
    2.5383   -3.1327    1.2599 H   0  0  0  0  0  0
    0.9607   -2.3814    1.3444 H   0  0  0  0  0  0
    4.3106   -0.7565    0.3647 H   0  0  0  0  0  0
    4.0188   -0.9175   -1.3647 H   0  0  0  0  0  0
    4.2805   -2.3503   -0.3845 H   0  0  0  0  0  0
  1  2  1  0  0  0
  1  3  1  0  0  0
  1 11  1  0  0  0
  1 27  1  0  0  0
  2 12  2  0  0  0
  2 18  1  0  0  0
  3  6  2  0  0  0
  3 21  1  0  0  0
  4  9  1  0  0  0
  4 13  2  0  0  0
  4 19  1  0  0  0
  5  8  3  0  0  0
  6  7  1  0  0  0
  6 28  1  0  0  0
  7 10  1  0  0  0
  7 22  2  0  0  0
  8 20  1  0  0  0
  9 15  2  0  0  0
  9 14  1  0  0  0
 10 16  1  0  0  0
 10 17  2  0  0  0
 11 24  1  0  0  0
 11 29  1  0  0  0
 11 30  1  0  0  0
 14 16  2  0  0  0
 14 31  1  0  0  0
 15 17  1  0  0  0
 15 32  1  0  0  0
 16 33  1  0  0  0
 17 34  1  0  0  0
 18 20  1  0  0  0
 18 35  1  0  0  0
 19 36  1  0  0  0
 19 37  1  0  0  0
 20 38  1  0  0  0
 20 39  1  0  0  0
 21 23  2  0  0  0
 21 40  1  0  0  0
 22 23  1  0  0  0
 22 41  1  0  0  0
 23 42  1  0  0  0
 24 25  1  0  0  0
 24 26  1  0  0  0
 24 43  1  0  0  0
 25 44  1  0  0  0
 25 45  1  0  0  0
 25 46  1  0  0  0
 26 47  1  0  0  0
 26 48  1  0  0  0
 26 49  1  0  0  0
M  END
> <chembl_id>
CHEMBL333987

> <chembl_pref_name>
None

> <s_m_source_file>
sdf/inactives_sanitized.sdf

> <i_m_source_file_index>
215

> <i_lp_mmshare_version>
49012

> <i_m_ct_stereo_status>
1

> <i_f3d_flags>
0

> <s_epik_input>
TiNDW0NIMl1bTkhdQyg9TylbQ0BASF0oW0NIMl1bQ0hdKFtDSDNdKVtDSDNdKWMxW2NIXWMoW2NIXVtjSF1bY0hdMSktYyhbY0hdW2NIXTIpW2NIXVtjSF1jMkMoPU8pW05IMl0=

> <s_epik_cmdline>
J2VwaWtfcHl0aG9uJywgJy1waHQnLCAnMC41JywgJy1waCcsICc3LjUnLCAnLW50JywgJy1tYScsICcyMDAnLCAnLWltYWUnLCAnPGluZmlsZS5tYWU+JywgJy1vbWFlJywgJzxvdXRmaWxlLm1hZT4n

> <r_lp_tautomer_probability>
1

> <r_epik_Ionization_Penalty>
  0.0000

> <r_epik_Ionization_Penalty_Charging>
  0.0000

> <r_epik_Ionization_Penalty_Neutral>
  0.0000

> <r_epik_State_Penalty>
 -0.0000

> <r_epik_Charging_Adjusted_Penalty>
0

> <i_epik_Tot_Q>
0

> <i_epik_Tot_abs_Q>
0

> <s_lp_Force_Field>
OPLS3e

> <r_lp_Energy>
27.828761

> <b_lp_Chiralities_Consistent>
1

> <s_lp_Variant>
sdf/inactives_sanitized.sdf:215-1

$$$$
sdf/inactives_sanitized.sdf:216
                    3D
 Schrodinger Suite 2020-1.
 35 37  0  0  1  0            999 V2000
   -1.2913    1.9211   -2.6679 C   0  0  0  0  0  0
   -0.2529    2.2431   -1.5424 C   0  0  0  0  0  0
   -0.4596    1.4726   -0.1958 C   0  0  1  0  0  0
   -1.9565    1.0749    0.0151 C   0  0  2  0  0  0
   -2.5889    1.6156   -2.0388 N   0  0  0  0  0  0
   -2.5439    0.4202   -1.2204 C   0  0  0  0  0  0
   -3.2007    2.5667   -1.2264 C   0  0  0  0  0  0
   -2.8037    2.2251    0.0370 O   0  0  0  0  0  0
   -3.8701    3.5613   -1.4972 O   0  0  0  0  0  0
    0.2063    0.2085   -0.1849 O   0  0  0  0  0  0
    1.5768    0.1275    0.0018 C   0  0  0  0  0  0
    2.3963    1.2456    0.2298 C   0  0  0  0  0  0
    3.7673    1.0962    0.4108 C   0  0  0  0  0  0
    4.3404   -0.1698    0.3688 C   0  0  0  0  0  0
    3.5500   -1.3000    0.1454 C   0  0  0  0  0  0
    2.1601   -1.1523   -0.0389 C   0  0  0  0  0  0
    1.2537   -2.3586   -0.2860 C   0  0  0  0  0  0
    4.2306   -2.6622    0.1069 C   0  0  0  0  0  0
   -0.9898    1.0451   -3.2437 H   0  0  0  0  0  0
   -1.4151    2.7592   -3.3550 H   0  0  0  0  0  0
    0.7542    2.1051   -1.9355 H   0  0  0  0  0  0
   -0.3219    3.3092   -1.3215 H   0  0  0  0  0  0
   -0.1751    2.0752    0.6687 H   0  0  0  0  0  0
   -2.0908    0.4672    0.9106 H   0  0  0  0  0  0
   -1.9133   -0.3665   -1.6375 H   0  0  0  0  0  0
   -3.5399    0.0084   -1.0392 H   0  0  0  0  0  0
    1.9897    2.2443    0.2669 H   0  0  0  0  0  0
    4.3871    1.9638    0.5830 H   0  0  0  0  0  0
    5.4072   -0.2674    0.5104 H   0  0  0  0  0  0
    1.7640   -3.3197   -0.2578 H   0  0  0  0  0  0
    0.7672   -2.2639   -1.2574 H   0  0  0  0  0  0
    0.4639   -2.3879    0.4655 H   0  0  0  0  0  0
    3.8298   -3.3085    0.8884 H   0  0  0  0  0  0
    5.3101   -2.5915    0.2484 H   0  0  0  0  0  0
    4.0507   -3.1483   -0.8524 H   0  0  0  0  0  0
  1  5  1  0  0  0
  1  2  1  0  0  0
  1 19  1  0  0  0
  1 20  1  0  0  0
  2  3  1  0  0  0
  2 21  1  0  0  0
  2 22  1  0  0  0
  3 10  1  0  0  0
  3  4  1  0  0  0
  3 23  1  0  0  0
  4  6  1  0  0  0
  4  8  1  0  0  0
  4 24  1  0  0  0
  5  6  1  0  0  0
  5  7  1  0  0  0
  6 25  1  0  0  0
  6 26  1  0  0  0
  7  9  2  0  0  0
  7  8  1  0  0  0
 10 11  1  0  0  0
 11 12  2  0  0  0
 11 16  1  0  0  0
 12 13  1  0  0  0
 12 27  1  0  0  0
 13 14  2  0  0  0
 13 28  1  0  0  0
 14 15  1  0  0  0
 14 29  1  0  0  0
 15 16  2  0  0  0
 15 18  1  0  0  0
 16 17  1  0  0  0
 17 30  1  0  0  0
 17 31  1  0  0  0
 17 32  1  0  0  0
 18 33  1  0  0  0
 18 34  1  0  0  0
 18 35  1  0  0  0
M  END
> <chembl_id>
CHEMBL230473

> <chembl_pref_name>
None

> <i_m_ct_stereo_status>
1

> <s_m_source_file>
sdf/inactives_sanitized.sdf

> <i_m_source_file_index>
216

> <i_lp_mmshare_version>
49012

> <i_f3d_flags>
0

> <s_epik_input>
TzFDKD1PKU4oW0NIMl0yKVtDSDJdW0NIMl1bQ0BASF0oW0NIXTEyKU9jM1tjSF1bY0hdW2NIXWMoW0NIM10pYzNbQ0gzXQ==

> <s_epik_cmdline>
J2VwaWtfcHl0aG9uJywgJy1waHQnLCAnMC41JywgJy1waCcsICc3LjUnLCAnLW50JywgJy1tYScsICcyMDAnLCAnLWltYWUnLCAnPGluZmlsZS5tYWU+JywgJy1vbWFlJywgJzxvdXRmaWxlLm1hZT4n

> <r_lp_tautomer_probability>
1

> <r_epik_Ionization_Penalty>
  0.0000

> <r_epik_Ionization_Penalty_Charging>
  0.0000

> <r_epik_Ionization_Penalty_Neutral>
  0.0000

> <r_epik_State_Penalty>
 -0.0000

> <r_epik_Charging_Adjusted_Penalty>
0

> <i_epik_Tot_Q>
0

> <i_epik_Tot_abs_Q>
0

> <s_epik_Chemistry_Notes>
This compound has an ester and may undergo hydrolysis at high or low pH.

> <s_lp_Force_Field>
OPLS3e

> <r_lp_Energy>
32.826134

> <b_lp_Chiralities_Consistent>
1

> <s_lp_Variant>
sdf/inactives_sanitized.sdf:216-1

$$$$
sdf/inactives_sanitized.sdf:217
                    3D
 Schrodinger Suite 2020-1.
 72 76  0  0  1  0            999 V2000
   -2.2674   -1.4388   -1.1503 C   0  0  1  0  0  0
   -1.5489   -1.8600    0.1786 C   0  0  0  0  0  0
   -1.7737   -2.3515   -2.3265 C   0  0  0  0  0  0
    0.0453    7.9904    1.6987 C   0  0  0  0  0  0
   -0.0624    7.0482    0.5165 C   0  0  0  0  0  0
   -0.9357    8.2826    0.5881 C   0  0  0  0  0  0
    2.3977    3.3857    0.0513 C   0  0  0  0  0  0
    1.3754    4.5269   -0.1400 C   0  0  0  0  0  0
    2.0881    5.8973   -0.2102 C   0  0  0  0  0  0
    1.0932    7.0363   -0.5114 C   0  0  0  0  0  0
   -0.7330    5.6734    0.7426 C   0  0  0  0  0  0
    0.3220    4.5781    0.9967 C   0  0  0  0  0  0
    1.7940    2.0569    0.0504 N   0  0  0  0  0  0
   -0.1067   -1.5880    0.1841 N   0  0  0  0  0  0
    0.4803   -0.5147    0.7465 C   0  0  0  0  0  0
    1.9589   -0.3603    0.4721 C   0  0  0  0  0  0
   -0.1314    0.3285    1.4047 O   0  0  0  0  0  0
    2.5673    0.8841    0.1702 C   0  0  0  0  0  0
    3.9114    0.9785   -0.0485 N   0  0  0  0  0  0
    4.6304   -0.1674    0.0313 C   0  0  0  0  0  0
    4.1482   -1.4029    0.3039 N   0  0  0  0  0  0
    2.8110   -1.4772    0.5210 C   0  0  0  0  0  0
    6.0603   -0.0584   -0.2004 C   0  0  0  0  0  0
    7.1996    0.0287   -0.3849 N   0  0  0  0  0  0
   -2.0625   -3.8592   -2.1554 C   0  0  0  0  0  0
   -3.5844   -4.0552   -1.9785 N   0  3  2  0  0  0
   -4.1545   -3.2227   -0.8095 C   0  0  0  0  0  0
   -3.7986   -1.7414   -1.0511 C   0  0  0  0  0  0
   -2.0614    0.0765   -1.4321 C   0  0  0  0  0  0
   -1.3045    0.5407   -2.5220 C   0  0  0  0  0  0
   -1.1061    1.9038   -2.7227 C   0  0  0  0  0  0
   -1.6601    2.8208   -1.8362 C   0  0  0  0  0  0
   -2.4067    2.3852   -0.7468 C   0  0  0  0  0  0
   -2.6040    1.0220   -0.5469 C   0  0  0  0  0  0
   -3.9122   -5.5484   -1.7805 C   0  0  0  0  0  0
   -2.0307   -1.3666    1.0256 H   0  0  0  0  0  0
   -1.6594   -2.9202    0.3936 H   0  0  0  0  0  0
   -2.2255   -2.0207   -3.2636 H   0  0  0  0  0  0
   -0.7019   -2.2190   -2.4798 H   0  0  0  0  0  0
   -0.3328    7.6617    2.6673 H   0  0  0  0  0  0
    0.9367    8.6107    1.7960 H   0  0  0  0  0  0
   -0.7325    9.1073   -0.0958 H   0  0  0  0  0  0
   -2.0025    8.1581    0.7764 H   0  0  0  0  0  0
    2.9208    3.5149    1.0003 H   0  0  0  0  0  0
    3.1831    3.4402   -0.7042 H   0  0  0  0  0  0
    0.8508    4.3701   -1.0846 H   0  0  0  0  0  0
    2.8602    5.8729   -0.9805 H   0  0  0  0  0  0
    2.6303    6.0894    0.7174 H   0  0  0  0  0  0
    1.6158    7.9939   -0.5302 H   0  0  0  0  0  0
    0.6798    6.8976   -1.5114 H   0  0  0  0  0  0
   -1.4403    5.7098    1.5725 H   0  0  0  0  0  0
   -1.3181    5.4144   -0.1401 H   0  0  0  0  0  0
   -0.1744    3.6121    1.0972 H   0  0  0  0  0  0
    0.8154    4.7335    1.9577 H   0  0  0  0  0  0
    0.8334    1.9928    0.3573 H   0  0  0  0  0  0
    0.4787   -2.2678   -0.2785 H   0  0  0  0  0  0
    2.4345   -2.4635    0.7522 H   0  0  0  0  0  0
   -1.7867   -4.4160   -3.0520 H   0  0  0  0  0  0
   -1.5629   -4.3102   -1.2978 H   0  0  0  0  0  0
   -5.2346   -3.3763   -0.8237 H   0  0  0  0  0  0
   -3.7545   -3.6260    0.1215 H   0  0  0  0  0  0
   -4.2619   -1.1420   -0.2673 H   0  0  0  0  0  0
   -4.2951   -1.4053   -1.9635 H   0  0  0  0  0  0
   -0.8478   -0.1350   -3.2273 H   0  0  0  0  0  0
   -0.5197    2.2485   -3.5616 H   0  0  0  0  0  0
   -1.5033    3.8778   -1.9924 H   0  0  0  0  0  0
   -2.8244    3.1014   -0.0546 H   0  0  0  0  0  0
   -3.1682    0.7071    0.3181 H   0  0  0  0  0  0
   -3.4298   -5.8829   -0.8605 H   0  0  0  0  0  0
   -3.5294   -6.0819   -2.6519 H   0  0  0  0  0  0
   -4.9979   -5.6354   -1.7196 H   0  0  0  0  0  0
   -4.0323   -3.7340   -2.8257 H   0  0  0  0  0  0
  1  2  1  0  0  0
  1  3  1  0  0  0
  1 28  1  0  0  0
  1 29  1  0  0  0
  2 14  1  0  0  0
  2 36  1  0  0  0
  2 37  1  0  0  0
  3 25  1  0  0  0
  3 38  1  0  0  0
  3 39  1  0  0  0
  4  5  1  0  0  0
  4  6  1  0  0  0
  4 40  1  0  0  0
  4 41  1  0  0  0
  5 10  1  0  0  0
  5 11  1  0  0  0
  5  6  1  0  0  0
  6 42  1  0  0  0
  6 43  1  0  0  0
  7 13  1  0  0  0
  7  8  1  0  0  0
  7 44  1  0  0  0
  7 45  1  0  0  0
  8 12  1  0  0  0
  8  9  1  0  0  0
  8 46  1  0  0  0
  9 10  1  0  0  0
  9 47  1  0  0  0
  9 48  1  0  0  0
 10 49  1  0  0  0
 10 50  1  0  0  0
 11 12  1  0  0  0
 11 51  1  0  0  0
 11 52  1  0  0  0
 12 53  1  0  0  0
 12 54  1  0  0  0
 13 18  1  0  0  0
 13 55  1  0  0  0
 14 15  1  0  0  0
 14 56  1  0  0  0
 15 16  1  0  0  0
 15 17  2  0  0  0
 16 18  1  0  0  0
 16 22  2  0  0  0
 18 19  2  0  0  0
 19 20  1  0  0  0
 20 21  2  0  0  0
 20 23  1  0  0  0
 21 22  1  0  0  0
 22 57  1  0  0  0
 23 24  3  0  0  0
 25 26  1  0  0  0
 25 58  1  0  0  0
 25 59  1  0  0  0
 26 27  1  0  0  0
 26 35  1  0  0  0
 26 72  1  0  0  0
 27 28  1  0  0  0
 27 60  1  0  0  0
 27 61  1  0  0  0
 28 62  1  0  0  0
 28 63  1  0  0  0
 29 30  2  0  0  0
 29 34  1  0  0  0
 30 31  1  0  0  0
 30 64  1  0  0  0
 31 32  2  0  0  0
 31 65  1  0  0  0
 32 33  1  0  0  0
 32 66  1  0  0  0
 33 34  2  0  0  0
 33 67  1  0  0  0
 34 68  1  0  0  0
 35 69  1  0  0  0
 35 70  1  0  0  0
 35 71  1  0  0  0
M  CHG  1  26   1
M  END
> <chembl_id>
CHEMBL508319

> <chembl_pref_name>
None

> <s_m_source_file>
sdf/inactives_sanitized.sdf

> <i_m_source_file_index>
217

> <i_lp_mmshare_version>
49012

> <i_m_ct_stereo_status>
1

> <i_f3d_flags>
0

> <s_epik_input>
W2NIXTFbY0hdW2NIXVtjSF1bY0hdYzFDMihbQ0gyXVtDSDJdTihbQ0gzXSlbQ0gyXVtDSDJdMilbQ0gyXVtOSF1DKD1PKWMzYyhuYyhDI04pbltjSF0zKVtOSF1bQ0gyXVtDSF0oW0NIMl1bQ0gyXTQpW0NIMl1bQ0gyXUM0NVtDSDJdW0NIMl01

> <s_epik_cmdline>
J2VwaWtfcHl0aG9uJywgJy1waHQnLCAnMC41JywgJy1waCcsICc3LjUnLCAnLW50JywgJy1tYScsICcyMDAnLCAnLWltYWUnLCAnPGluZmlsZS5tYWU+JywgJy1vbWFlJywgJzxvdXRmaWxlLm1hZT4n

> <r_epik_Ionization_Penalty>
  0.0116

> <r_epik_Ionization_Penalty_Charging>
  0.0115

> <r_epik_Ionization_Penalty_Neutral>
  0.0000

> <r_epik_State_Penalty>
  0.0089

> <r_epik_Charging_Adjusted_Penalty>
0.0204159120607009

> <i_epik_Tot_Q>
1

> <i_epik_Tot_abs_Q>
1

> <s_lp_Force_Field>
OPLS3e

> <r_lp_Energy>
57.705236

> <b_lp_Chiralities_Consistent>
1

> <s_lp_Variant>
sdf/inactives_sanitized.sdf:217-1

$$$$
sdf/inactives_sanitized.sdf:218
                    3D
 Schrodinger Suite 2020-1.
 39 41  0  0  1  0            999 V2000
   -2.6429    0.1093   -1.0134 N   0  0  0  0  0  0
   -2.2365   -0.9851   -0.3058 C   0  0  0  0  0  0
   -0.9435   -1.1986    0.0780 N   0  0  0  0  0  0
   -0.0482   -0.2266   -0.2514 C   0  0  0  0  0  0
   -0.3572    0.8986   -0.9460 N   0  0  0  0  0  0
   -1.6645    1.0067   -1.2941 C   0  0  0  0  0  0
   -3.1804   -1.9786   -0.0226 N   0  0  0  0  0  0
   -2.9023   -3.0516    0.9565 C   0  0  0  0  0  0
   -3.8460   -4.2675    0.8566 C   0  0  0  0  0  0
   -5.1979   -3.8424    0.8935 O   0  0  0  0  0  0
   -5.5008   -2.9974   -0.2037 C   0  0  0  0  0  0
   -4.6315   -1.7242   -0.1508 C   0  0  0  0  0  0
   -2.0520    2.1907   -2.0423 C   0  0  0  0  0  0
   -2.3608    3.1338   -2.6384 N   0  0  0  0  0  0
    1.3042   -0.3703    0.0929 N   0  0  0  0  0  0
    1.9825   -1.2962    0.9051 C   0  0  0  0  0  0
    3.3516   -1.4779    0.6848 C   0  0  0  0  0  0
    4.0991   -2.3772    1.4651 C   0  0  0  0  0  0
    3.4505   -3.0862    2.4777 C   0  0  0  0  0  0
    2.0899   -2.9044    2.7157 C   0  0  0  0  0  0
    1.3588   -2.0102    1.9367 C   0  0  0  0  0  0
    5.4503   -2.6177    1.3057 O   0  0  0  0  0  0
    6.1642   -1.9241    0.2879 C   0  0  0  0  0  0
   -1.8886   -3.4256    0.8081 H   0  0  0  0  0  0
   -2.9301   -2.6305    1.9624 H   0  0  0  0  0  0
   -3.6464   -4.8437   -0.0493 H   0  0  0  0  0  0
   -3.6713   -4.9423    1.6948 H   0  0  0  0  0  0
   -5.3621   -3.5269   -1.1486 H   0  0  0  0  0  0
   -6.5560   -2.7283   -0.1544 H   0  0  0  0  0  0
   -4.9518   -1.0788    0.6683 H   0  0  0  0  0  0
   -4.8235   -1.1714   -1.0711 H   0  0  0  0  0  0
    1.8920    0.3673   -0.2671 H   0  0  0  0  0  0
    3.8279   -0.9156   -0.1049 H   0  0  0  0  0  0
    4.0080   -3.7811    3.0887 H   0  0  0  0  0  0
    1.6030   -3.4529    3.5086 H   0  0  0  0  0  0
    0.3122   -1.8744    2.1613 H   0  0  0  0  0  0
    7.2080   -2.2375    0.3036 H   0  0  0  0  0  0
    6.1413   -0.8447    0.4471 H   0  0  0  0  0  0
    5.7675   -2.1490   -0.7033 H   0  0  0  0  0  0
  1  2  2  0  0  0
  1  6  1  0  0  0
  2  3  1  0  0  0
  2  7  1  0  0  0
  3  4  2  0  0  0
  4  5  1  0  0  0
  4 15  1  0  0  0
  5  6  2  0  0  0
  6 13  1  0  0  0
  7  8  1  0  0  0
  7 12  1  0  0  0
  8  9  1  0  0  0
  8 24  1  0  0  0
  8 25  1  0  0  0
  9 10  1  0  0  0
  9 26  1  0  0  0
  9 27  1  0  0  0
 10 11  1  0  0  0
 11 12  1  0  0  0
 11 28  1  0  0  0
 11 29  1  0  0  0
 12 30  1  0  0  0
 12 31  1  0  0  0
 13 14  3  0  0  0
 15 16  1  0  0  0
 15 32  1  0  0  0
 16 17  2  0  0  0
 16 21  1  0  0  0
 17 18  1  0  0  0
 17 33  1  0  0  0
 18 19  2  0  0  0
 18 22  1  0  0  0
 19 20  1  0  0  0
 19 34  1  0  0  0
 20 21  2  0  0  0
 20 35  1  0  0  0
 21 36  1  0  0  0
 22 23  1  0  0  0
 23 37  1  0  0  0
 23 38  1  0  0  0
 23 39  1  0  0  0
M  END
> <chembl_id>
CHEMBL4238536

> <chembl_pref_name>
None

> <s_m_source_file>
sdf/inactives_sanitized.sdf

> <i_m_source_file_index>
218

> <i_lp_mmshare_version>
49012

> <i_m_ct_stereo_status>
1

> <i_f3d_flags>
0

> <s_epik_input>
W0NIMl0xW0NIMl1PW0NIMl1bQ0gyXU4xYzJuYyhDI04pbmMobjIpW05IXWMzW2NIXWMoT1tDSDNdKVtjSF1bY0hdW2NIXTM=

> <s_epik_cmdline>
J2VwaWtfcHl0aG9uJywgJy1waHQnLCAnMC41JywgJy1waCcsICc3LjUnLCAnLW50JywgJy1tYScsICcyMDAnLCAnLWltYWUnLCAnPGluZmlsZS5tYWU+JywgJy1vbWFlJywgJzxvdXRmaWxlLm1hZT4n

> <r_lp_tautomer_probability>
1

> <r_epik_Ionization_Penalty>
  0.0002

> <r_epik_Ionization_Penalty_Charging>
  0.0000

> <r_epik_Ionization_Penalty_Neutral>
  0.0002

> <r_epik_State_Penalty>
 -0.0000

> <r_epik_Charging_Adjusted_Penalty>
0

> <i_epik_Tot_Q>
0

> <i_epik_Tot_abs_Q>
0

> <s_lp_Force_Field>
OPLS3e

> <r_lp_Energy>
30.736483

> <b_lp_Chiralities_Consistent>
1

> <s_lp_Variant>
sdf/inactives_sanitized.sdf:218-1

$$$$
sdf/inactives_sanitized.sdf:219
                    3D
 Schrodinger Suite 2020-1.
 50 53  0  0  1  0            999 V2000
    0.8606    2.1168   -0.0857 N   0  0  0  0  0  0
    0.0392    3.1868   -0.2584 C   0  0  0  0  0  0
   -1.3167    3.2175   -0.1914 N   0  0  0  0  0  0
   -1.9383    2.0392    0.0755 C   0  0  0  0  0  0
    0.2035    0.9736    0.1670 C   0  0  0  0  0  0
   -1.2069    0.8538    0.2594 C   0  0  0  0  0  0
   -1.4876   -0.5184    0.5212 C   0  0  0  0  0  0
   -0.2772   -1.2016    0.5694 C   0  0  0  0  0  0
    0.7506   -0.2876    0.3611 N   0  0  0  0  0  0
    0.6949    4.4433   -0.5774 C   0  0  0  0  0  0
    1.2186    5.4432   -0.8331 N   0  0  0  0  0  0
    0.0095   -2.6807    0.7998 C   0  0  0  0  0  0
   -1.2426   -3.5317    0.9703 C   0  0  0  0  0  0
   -1.7864   -4.2031   -0.1281 C   0  0  0  0  0  0
   -2.9325   -4.9782    0.0290 C   0  0  0  0  0  0
   -3.5324   -5.0798    1.2833 C   0  0  0  0  0  0
   -2.9951   -4.4106    2.3818 C   0  0  0  0  0  0
   -1.8489   -3.6360    2.2254 C   0  0  0  0  0  0
   -4.9523   -6.0417    1.4776 Cl  0  0  0  0  0  0
    2.1840   -0.6022    0.3008 C   0  0  0  0  0  0
    2.6511   -0.9448   -1.1317 C   0  0  0  0  0  0
    2.4361    0.2708   -2.0706 N   0  3  0  0  0  0
    3.7406    0.6938   -2.7830 C   0  0  0  0  0  0
    3.4691    1.9830   -3.5784 C   0  0  0  0  0  0
    2.3002    1.8186   -4.5655 C   0  0  0  0  0  0
    1.0280    1.3083   -3.8664 C   0  0  0  0  0  0
    1.2872    0.0154   -3.0745 C   0  0  0  0  0  0
   -3.0171    2.0524    0.1276 H   0  0  0  0  0  0
   -2.4594   -0.9726    0.6507 H   0  0  0  0  0  0
    0.6210   -2.8005    1.6953 H   0  0  0  0  0  0
    0.5997   -3.0849   -0.0238 H   0  0  0  0  0  0
   -1.3252   -4.1247   -1.1019 H   0  0  0  0  0  0
   -3.3521   -5.4974   -0.8203 H   0  0  0  0  0  0
   -3.4631   -4.4902    3.3522 H   0  0  0  0  0  0
   -1.4350   -3.1163    3.0775 H   0  0  0  0  0  0
    2.7454    0.2472    0.6938 H   0  0  0  0  0  0
    2.3949   -1.4318    0.9756 H   0  0  0  0  0  0
    3.7164   -1.1806   -1.1397 H   0  0  0  0  0  0
    2.1231   -1.8008   -1.5564 H   0  0  0  0  0  0
    4.4930    0.8502   -2.0084 H   0  0  0  0  0  0
    4.0402   -0.1383   -3.4226 H   0  0  0  0  0  0
    3.2518    2.7971   -2.8846 H   0  0  0  0  0  0
    4.3698    2.2774   -4.1181 H   0  0  0  0  0  0
    2.0956    2.7697   -5.0590 H   0  0  0  0  0  0
    2.5865    1.1223   -5.3557 H   0  0  0  0  0  0
    0.6437    2.0761   -3.1930 H   0  0  0  0  0  0
    0.2453    1.1347   -4.6060 H   0  0  0  0  0  0
    1.6040   -0.8073   -3.7181 H   0  0  0  0  0  0
    0.4127   -0.2911   -2.4993 H   0  0  0  0  0  0
    2.1575    1.0499   -1.4893 H   0  0  0  0  0  0
  1  2  2  0  0  0
  1  5  1  0  0  0
  2  3  1  0  0  0
  2 10  1  0  0  0
  3  4  2  0  0  0
  4  6  1  0  0  0
  4 28  1  0  0  0
  5  9  1  0  0  0
  5  6  2  0  0  0
  6  7  1  0  0  0
  7  8  2  0  0  0
  7 29  1  0  0  0
  8  9  1  0  0  0
  8 12  1  0  0  0
  9 20  1  0  0  0
 10 11  3  0  0  0
 12 13  1  0  0  0
 12 30  1  0  0  0
 12 31  1  0  0  0
 13 14  2  0  0  0
 13 18  1  0  0  0
 14 15  1  0  0  0
 14 32  1  0  0  0
 15 16  2  0  0  0
 15 33  1  0  0  0
 16 17  1  0  0  0
 16 19  1  0  0  0
 17 18  2  0  0  0
 17 34  1  0  0  0
 18 35  1  0  0  0
 20 21  1  0  0  0
 20 36  1  0  0  0
 20 37  1  0  0  0
 21 22  1  0  0  0
 21 38  1  0  0  0
 21 39  1  0  0  0
 22 23  1  0  0  0
 22 27  1  0  0  0
 22 50  1  0  0  0
 23 24  1  0  0  0
 23 40  1  0  0  0
 23 41  1  0  0  0
 24 25  1  0  0  0
 24 42  1  0  0  0
 24 43  1  0  0  0
 25 26  1  0  0  0
 25 44  1  0  0  0
 25 45  1  0  0  0
 26 27  1  0  0  0
 26 46  1  0  0  0
 26 47  1  0  0  0
 27 48  1  0  0  0
 27 49  1  0  0  0
M  CHG  1  22   1
M  END
> <chembl_id>
CHEMBL523015

> <chembl_pref_name>
None

> <s_m_source_file>
sdf/inactives_sanitized.sdf

> <i_m_source_file_index>
219

> <i_lp_mmshare_version>
49012

> <i_m_ct_stereo_status>
1

> <i_f3d_flags>
0

> <s_epik_input>
TiNDYyhuMSluW2NIXWMoYzEyKVtjSF1jKFtDSDJdYzNbY0hdW2NIXWMoQ2wpW2NIXVtjSF0zKW4yW0NIMl1bQ0gyXU40W0NIMl1bQ0gyXVtDSDJdW0NIMl1bQ0gyXTQ=

> <s_epik_cmdline>
J2VwaWtfcHl0aG9uJywgJy1waHQnLCAnMC41JywgJy1waCcsICc3LjUnLCAnLW50JywgJy1tYScsICcyMDAnLCAnLWltYWUnLCAnPGluZmlsZS5tYWU+JywgJy1vbWFlJywgJzxvdXRmaWxlLm1hZT4n

> <r_epik_Ionization_Penalty>
  0.0703

> <r_epik_Ionization_Penalty_Charging>
  0.0703

> <r_epik_Ionization_Penalty_Neutral>
  0.0000

> <r_epik_State_Penalty>
  0.0617

> <r_epik_Charging_Adjusted_Penalty>
0.131981678996523

> <i_epik_Tot_Q>
1

> <i_epik_Tot_abs_Q>
1

> <s_lp_Force_Field>
OPLS3e

> <r_lp_Energy>
42.020084

> <b_lp_Chiralities_Consistent>
1

> <s_lp_Variant>
sdf/inactives_sanitized.sdf:219-1

$$$$
sdf/inactives_sanitized.sdf:220
                    3D
 Schrodinger Suite 2020-1.
 50 53  0  0  1  0            999 V2000
   -5.0001   -0.9681   -0.7473 N   0  0  0  0  0  0
   -4.3424    0.0012   -0.0555 C   0  0  0  0  0  0
   -5.0054    1.0197    0.6455 C   0  0  0  0  0  0
   -6.3542   -0.9681   -0.7852 C   0  0  0  0  0  0
   -7.3494    1.8527    1.1661 N   0  0  0  0  0  0
   -8.6081    1.4183    0.8154 C   0  0  0  0  0  0
   -8.5162    0.2897    0.0301 C   0  0  0  0  0  0
   -7.1194    0.0072   -0.1251 C   0  0  0  0  0  0
   -6.4064    1.0095    0.5986 C   0  0  0  0  0  0
   -6.9544   -2.0460   -1.5553 C   0  0  0  0  0  0
   -7.4328   -2.9033   -2.1678 N   0  0  0  0  0  0
   -2.8500   -0.0874   -0.0729 C   0  0  0  0  0  0
   -2.0632    1.0716   -0.0579 C   0  0  0  0  0  0
   -0.6627    1.0147   -0.0705 C   0  0  0  0  0  0
   -0.0205   -0.2347   -0.1014 C   0  0  0  0  0  0
   -0.8028   -1.3997   -0.1193 C   0  0  0  0  0  0
   -2.1927   -1.3239   -0.1043 C   0  0  0  0  0  0
    0.1605    2.3076   -0.0480 C   0  0  0  0  0  0
    0.9271    2.3308    1.0428 F   0  0  0  0  0  0
    0.9465    2.3638   -1.1239 F   0  0  0  0  0  0
   -0.5991    3.4049   -0.0380 F   0  0  0  0  0  0
   -7.0641    3.0233    1.9802 C   0  0  0  0  0  0
    1.3626   -0.2474   -0.1237 O   0  0  0  0  0  0
    2.0640   -1.4806    0.0165 C   0  0  0  0  0  0
    3.5707   -1.1992    0.1445 C   0  0  0  0  0  0
    3.9005   -0.3304    1.2758 N   0  0  0  0  0  0
    4.0607   -0.8070    2.5319 C   0  0  0  0  0  0
    4.4633    0.3916    3.3897 C   0  0  0  0  0  0
    4.2276    1.6192    2.5311 C   0  0  0  0  0  0
    4.1832    1.0917    1.1107 C   0  0  0  0  0  0
    3.9243   -1.9616    2.9359 O   0  0  0  0  0  0
   -4.4657    1.7726    1.2011 H   0  0  0  0  0  0
   -9.4786    1.9573    1.1612 H   0  0  0  0  0  0
   -9.3529   -0.2573   -0.3796 H   0  0  0  0  0  0
   -2.5527    2.0341   -0.0442 H   0  0  0  0  0  0
   -0.3502   -2.3791   -0.1482 H   0  0  0  0  0  0
   -2.7601   -2.2435   -0.1137 H   0  0  0  0  0  0
   -6.4497    2.7295    2.8321 H   0  0  0  0  0  0
   -7.9901    3.4707    2.3444 H   0  0  0  0  0  0
   -6.5207    3.7548    1.3811 H   0  0  0  0  0  0
    1.7212   -2.0182    0.9028 H   0  0  0  0  0  0
    1.8846   -2.1243   -0.8458 H   0  0  0  0  0  0
    4.1454   -2.1264    0.1660 H   0  0  0  0  0  0
    3.8881   -0.6461   -0.7404 H   0  0  0  0  0  0
    3.9098    0.4281    4.3287 H   0  0  0  0  0  0
    5.5224    0.2875    3.6290 H   0  0  0  0  0  0
    4.9805    2.3963    2.6673 H   0  0  0  0  0  0
    3.2604    2.0564    2.7862 H   0  0  0  0  0  0
    3.4172    1.5886    0.5145 H   0  0  0  0  0  0
    5.1430    1.2234    0.6099 H   0  0  0  0  0  0
  1  2  2  0  0  0
  1  4  1  0  0  0
  2 12  1  0  0  0
  2  3  1  0  0  0
  3  9  2  0  0  0
  3 32  1  0  0  0
  4  8  2  0  0  0
  4 10  1  0  0  0
  5  6  1  0  0  0
  5  9  1  0  0  0
  5 22  1  0  0  0
  6  7  2  0  0  0
  6 33  1  0  0  0
  7  8  1  0  0  0
  7 34  1  0  0  0
  8  9  1  0  0  0
 10 11  3  0  0  0
 12 17  1  0  0  0
 12 13  2  0  0  0
 13 14  1  0  0  0
 13 35  1  0  0  0
 14 18  1  0  0  0
 14 15  2  0  0  0
 15 16  1  0  0  0
 15 23  1  0  0  0
 16 17  2  0  0  0
 16 36  1  0  0  0
 17 37  1  0  0  0
 18 19  1  0  0  0
 18 20  1  0  0  0
 18 21  1  0  0  0
 22 38  1  0  0  0
 22 39  1  0  0  0
 22 40  1  0  0  0
 23 24  1  0  0  0
 24 25  1  0  0  0
 24 41  1  0  0  0
 24 42  1  0  0  0
 25 26  1  0  0  0
 25 43  1  0  0  0
 25 44  1  0  0  0
 26 27  1  0  0  0
 26 30  1  0  0  0
 27 28  1  0  0  0
 27 31  2  0  0  0
 28 29  1  0  0  0
 28 45  1  0  0  0
 28 46  1  0  0  0
 29 30  1  0  0  0
 29 47  1  0  0  0
 29 48  1  0  0  0
 30 49  1  0  0  0
 30 50  1  0  0  0
M  END
> <chembl_id>
CHEMBL1209200

> <chembl_pref_name>
None

> <s_m_source_file>
sdf/inactives_sanitized.sdf

> <i_m_source_file_index>
220

> <i_lp_mmshare_version>
49012

> <i_m_ct_stereo_status>
1

> <i_f3d_flags>
0

> <s_epik_input>
W2NIXTFbY0hdbihbQ0gzXSljKGMxMilbY0hdYyhuYzJDI04pLWMzW2NIXWMoQyhGKShGKUYpYyhbY0hdW2NIXTMpT1tDSDJdW0NIMl1ONEMoPU8pW0NIMl1bQ0gyXVtDSDJdNA==

> <s_epik_cmdline>
J2VwaWtfcHl0aG9uJywgJy1waHQnLCAnMC41JywgJy1waCcsICc3LjUnLCAnLW50JywgJy1tYScsICcyMDAnLCAnLWltYWUnLCAnPGluZmlsZS5tYWU+JywgJy1vbWFlJywgJzxvdXRmaWxlLm1hZT4n

> <r_lp_tautomer_probability>
1

> <r_epik_Ionization_Penalty>
  0.0001

> <r_epik_Ionization_Penalty_Charging>
  0.0000

> <r_epik_Ionization_Penalty_Neutral>
  0.0001

> <r_epik_State_Penalty>
 -0.0000

> <r_epik_Charging_Adjusted_Penalty>
0

> <i_epik_Tot_Q>
0

> <i_epik_Tot_abs_Q>
0

> <s_lp_Force_Field>
OPLS3e

> <r_lp_Energy>
20.501027

> <b_lp_Chiralities_Consistent>
1

> <s_lp_Variant>
sdf/inactives_sanitized.sdf:220-1

$$$$
sdf/inactives_sanitized.sdf:221
                    3D
 Schrodinger Suite 2020-1.
 38 40  0  0  1  0            999 V2000
   -5.0273   -1.0033   -0.6251 N   0  0  0  0  0  0
   -4.3880    0.0217    0.0081 C   0  0  0  0  0  0
   -5.0722    1.0732    0.6418 C   0  0  0  0  0  0
   -6.3829   -1.0350   -0.6717 C   0  0  0  0  0  0
   -7.4726    1.8352    1.0585 N   0  0  0  0  0  0
   -8.6617    1.2582    0.6822 C   0  0  0  0  0  0
   -8.5189    0.1473    0.0054 N   0  0  0  0  0  0
   -7.1581   -0.0271   -0.0741 C   0  0  0  0  0  0
   -6.4683    1.0243    0.5822 C   0  0  0  0  0  0
   -6.9555   -2.1747   -1.3729 C   0  0  0  0  0  0
   -7.4111   -3.0807   -1.9306 N   0  0  0  0  0  0
   -2.8932   -0.0446    0.0045 C   0  0  0  0  0  0
   -2.1223    1.1254   -0.0170 C   0  0  0  0  0  0
   -0.7208    1.0892   -0.0154 C   0  0  0  0  0  0
   -0.0592   -0.1506    0.0049 C   0  0  0  0  0  0
   -0.8253   -1.3266    0.0224 C   0  0  0  0  0  0
   -2.2163   -1.2710    0.0232 C   0  0  0  0  0  0
    0.0829    2.3945   -0.0366 C   0  0  0  0  0  0
    0.8565    2.4650    1.0475 F   0  0  0  0  0  0
    0.8610    2.4271   -1.1192 F   0  0  0  0  0  0
   -0.6937    3.4798   -0.0569 F   0  0  0  0  0  0
    1.3252   -0.1423    0.0066 O   0  0  0  0  0  0
    2.0426   -1.3732    0.0120 C   0  0  0  0  0  0
    3.5465   -1.0632    0.0031 C   0  0  0  0  0  0
    4.4186   -2.3260   -0.0011 C   0  0  0  0  0  0
   -4.5552    1.8720    1.1529 H   0  0  0  0  0  0
   -7.4060    2.6943    1.5854 H   0  0  0  0  0  0
   -9.5960    1.7289    0.9522 H   0  0  0  0  0  0
   -2.6248    2.0808   -0.0439 H   0  0  0  0  0  0
   -0.3598   -2.3001    0.0374 H   0  0  0  0  0  0
   -2.7688   -2.1994    0.0437 H   0  0  0  0  0  0
    1.7895   -1.9524    0.9021 H   0  0  0  0  0  0
    1.7817   -1.9639   -0.8682 H   0  0  0  0  0  0
    3.7877   -0.4583   -0.8719 H   0  0  0  0  0  0
    3.7979   -0.4561    0.8737 H   0  0  0  0  0  0
    5.4776   -2.0665   -0.0084 H   0  0  0  0  0  0
    4.2227   -2.9397   -0.8811 H   0  0  0  0  0  0
    4.2346   -2.9379    0.8828 H   0  0  0  0  0  0
  1  2  2  0  0  0
  1  4  1  0  0  0
  2  3  1  0  0  0
  2 12  1  0  0  0
  3  9  2  0  0  0
  3 26  1  0  0  0
  4  8  2  0  0  0
  4 10  1  0  0  0
  5  6  1  0  0  0
  5  9  1  0  0  0
  5 27  1  0  0  0
  6  7  2  0  0  0
  6 28  1  0  0  0
  7  8  1  0  0  0
  8  9  1  0  0  0
 10 11  3  0  0  0
 12 13  2  0  0  0
 12 17  1  0  0  0
 13 14  1  0  0  0
 13 29  1  0  0  0
 14 15  2  0  0  0
 14 18  1  0  0  0
 15 16  1  0  0  0
 15 22  1  0  0  0
 16 17  2  0  0  0
 16 30  1  0  0  0
 17 31  1  0  0  0
 18 19  1  0  0  0
 18 20  1  0  0  0
 18 21  1  0  0  0
 22 23  1  0  0  0
 23 24  1  0  0  0
 23 32  1  0  0  0
 23 33  1  0  0  0
 24 25  1  0  0  0
 24 34  1  0  0  0
 24 35  1  0  0  0
 25 36  1  0  0  0
 25 37  1  0  0  0
 25 38  1  0  0  0
M  END
> <chembl_id>
CHEMBL1209858

> <chembl_pref_name>
None

> <s_m_source_file>
sdf/inactives_sanitized.sdf

> <i_m_source_file_index>
221

> <i_lp_mmshare_version>
49012

> <i_m_ct_stereo_status>
1

> <i_f3d_flags>
0

> <s_epik_input>
bjFbY0hdW25IXWMoYzEyKVtjSF1jKG5jMkMjTiktYzNbY0hdYyhDKEYpKEYpRiljKFtjSF1bY0hdMylPW0NIMl1bQ0gyXVtDSDNd

> <s_epik_cmdline>
J2VwaWtfcHl0aG9uJywgJy1waHQnLCAnMC41JywgJy1waCcsICc3LjUnLCAnLW50JywgJy1tYScsICcyMDAnLCAnLWltYWUnLCAnPGluZmlsZS5tYWU+JywgJy1vbWFlJywgJzxvdXRmaWxlLm1hZT4n

> <r_lp_tautomer_probability>
1

> <r_epik_Ionization_Penalty>
  0.0350

> <r_epik_Ionization_Penalty_Charging>
  0.0000

> <r_epik_Ionization_Penalty_Neutral>
  0.0350

> <r_epik_State_Penalty>
 -0.0000

> <r_epik_Charging_Adjusted_Penalty>
1.09957420349954e-07

> <i_epik_Tot_Q>
0

> <i_epik_Tot_abs_Q>
0

> <s_lp_Force_Field>
OPLS3e

> <r_lp_Energy>
28.250922

> <b_lp_Chiralities_Consistent>
1

> <s_lp_Variant>
sdf/inactives_sanitized.sdf:221-1

$$$$
sdf/inactives_sanitized.sdf:222
                    3D
 Schrodinger Suite 2020-1.
 69 73  0  0  1  0            999 V2000
   -3.1195    1.6772   -0.1355 N   0  0  0  0  0  0
   -4.2947    1.0049   -0.2696 C   0  0  0  0  0  0
   -4.4784   -0.3289   -0.4487 N   0  0  0  0  0  0
   -3.3575   -1.0944   -0.5035 C   0  0  0  0  0  0
   -2.0400    0.8810   -0.1954 C   0  0  0  0  0  0
   -2.0789   -0.5257   -0.3813 C   0  0  0  0  0  0
   -0.7278   -0.9791   -0.3942 C   0  0  0  0  0  0
    0.0940    0.1292   -0.2318 C   0  0  0  0  0  0
   -0.7084    1.2561   -0.0906 N   0  0  0  0  0  0
   -5.5005    1.8139   -0.2140 C   0  0  0  0  0  0
   -6.4608    2.4587   -0.1696 N   0  0  0  0  0  0
    1.6101    0.2202   -0.1927 C   0  0  0  0  0  0
    2.1706   -1.0601   -0.4752 O   0  0  0  0  0  0
    3.5414   -1.1906   -0.5880 C   0  0  0  0  0  0
   -0.2376    2.6322    0.0806 C   0  0  0  0  0  0
   -0.0939    3.3327   -1.2872 C   0  0  0  0  0  0
    0.4216    4.7887   -1.2049 C   0  0  0  0  0  0
   -0.6086    5.7544   -0.5679 C   0  0  0  0  0  0
   -0.0435    7.1846   -0.4469 C   0  0  0  0  0  0
    0.4388    7.7239   -1.8110 C   0  0  0  0  0  0
    1.3956    6.7454   -2.5255 C   0  0  0  0  0  0
    0.7966    5.3265   -2.6060 C   0  0  0  0  0  0
    4.4551   -0.1442   -0.3983 C   0  0  0  0  0  0
    5.8211   -0.3713   -0.5410 C   0  0  0  0  0  0
    6.3087   -1.6412   -0.8809 C   0  0  0  0  0  0
    5.3881   -2.6826   -1.0540 C   0  0  0  0  0  0
    4.0219   -2.4578   -0.9116 C   0  0  0  0  0  0
    7.7701   -1.8981   -1.0198 C   0  0  0  0  0  0
    8.6678   -1.2495   -0.2399 C   0  0  0  0  0  0
   10.1799   -1.4952   -0.2233 C   0  0  0  0  0  0
   10.5162   -2.6544   -1.0850 N   0  0  0  0  0  0
    9.7194   -2.8252   -2.3162 C   0  0  0  0  0  0
    8.2524   -3.0549   -1.8957 C   0  0  0  0  0  0
   11.3031   -3.6706   -0.6389 C   0  0  0  0  0  0
   12.2152   -3.4378    0.5711 C   0  0  0  0  0  0
   11.4244   -4.7409   -1.2377 O   0  0  0  0  0  0
   -3.4929   -2.1560   -0.6483 H   0  0  0  0  0  0
   -0.3784   -1.9937   -0.5190 H   0  0  0  0  0  0
    1.9504    0.9461   -0.9332 H   0  0  0  0  0  0
    1.9289    0.5453    0.7991 H   0  0  0  0  0  0
   -0.9438    3.1582    0.7235 H   0  0  0  0  0  0
    0.7098    2.6302    0.6203 H   0  0  0  0  0  0
    0.5931    2.7503   -1.9035 H   0  0  0  0  0  0
   -1.0510    3.3171   -1.8120 H   0  0  0  0  0  0
    1.3263    4.8060   -0.5935 H   0  0  0  0  0  0
   -1.5303    5.7553   -1.1528 H   0  0  0  0  0  0
   -0.9089    5.3990    0.4174 H   0  0  0  0  0  0
   -0.8005    7.8506   -0.0313 H   0  0  0  0  0  0
    0.7874    7.1890    0.2601 H   0  0  0  0  0  0
   -0.4269    7.9070   -2.4493 H   0  0  0  0  0  0
    0.9258    8.6906   -1.6781 H   0  0  0  0  0  0
    1.6221    7.1118   -3.5275 H   0  0  0  0  0  0
    2.3463    6.7104   -1.9913 H   0  0  0  0  0  0
    1.5110    4.6540   -3.0829 H   0  0  0  0  0  0
   -0.0767    5.3123   -3.2606 H   0  0  0  0  0  0
    4.1259    0.8510   -0.1414 H   0  0  0  0  0  0
    6.4957    0.4601   -0.4000 H   0  0  0  0  0  0
    5.7216   -3.6807   -1.2971 H   0  0  0  0  0  0
    3.3303   -3.2754   -1.0538 H   0  0  0  0  0  0
    8.3068   -0.4907    0.4379 H   0  0  0  0  0  0
   10.6862   -0.6064   -0.6002 H   0  0  0  0  0  0
   10.5174   -1.6073    0.8067 H   0  0  0  0  0  0
    9.8019   -1.9037   -2.8943 H   0  0  0  0  0  0
   10.1160   -3.5945   -2.9807 H   0  0  0  0  0  0
    8.1744   -3.9919   -1.3418 H   0  0  0  0  0  0
    7.6199   -3.1607   -2.7778 H   0  0  0  0  0  0
   12.6577   -2.4414    0.5498 H   0  0  0  0  0  0
   13.0328   -4.1592    0.5790 H   0  0  0  0  0  0
   11.6534   -3.5556    1.4979 H   0  0  0  0  0  0
  1  2  2  0  0  0
  1  5  1  0  0  0
  2 10  1  0  0  0
  2  3  1  0  0  0
  3  4  2  0  0  0
  4  6  1  0  0  0
  4 37  1  0  0  0
  5  9  1  0  0  0
  5  6  2  0  0  0
  6  7  1  0  0  0
  7  8  2  0  0  0
  7 38  1  0  0  0
  8  9  1  0  0  0
  8 12  1  0  0  0
  9 15  1  0  0  0
 10 11  3  0  0  0
 12 13  1  0  0  0
 12 39  1  0  0  0
 12 40  1  0  0  0
 13 14  1  0  0  0
 14 23  2  0  0  0
 14 27  1  0  0  0
 15 16  1  0  0  0
 15 41  1  0  0  0
 15 42  1  0  0  0
 16 17  1  0  0  0
 16 43  1  0  0  0
 16 44  1  0  0  0
 17 18  1  0  0  0
 17 22  1  0  0  0
 17 45  1  0  0  0
 18 19  1  0  0  0
 18 46  1  0  0  0
 18 47  1  0  0  0
 19 20  1  0  0  0
 19 48  1  0  0  0
 19 49  1  0  0  0
 20 21  1  0  0  0
 20 50  1  0  0  0
 20 51  1  0  0  0
 21 22  1  0  0  0
 21 52  1  0  0  0
 21 53  1  0  0  0
 22 54  1  0  0  0
 22 55  1  0  0  0
 23 24  1  0  0  0
 23 56  1  0  0  0
 24 25  2  0  0  0
 24 57  1  0  0  0
 25 26  1  0  0  0
 25 28  1  0  0  0
 26 27  2  0  0  0
 26 58  1  0  0  0
 27 59  1  0  0  0
 28 29  2  0  0  0
 28 33  1  0  0  0
 29 30  1  0  0  0
 29 60  1  0  0  0
 30 31  1  0  0  0
 30 61  1  0  0  0
 30 62  1  0  0  0
 31 32  1  0  0  0
 31 34  1  0  0  0
 32 33  1  0  0  0
 32 63  1  0  0  0
 32 64  1  0  0  0
 33 65  1  0  0  0
 33 66  1  0  0  0
 34 35  1  0  0  0
 34 36  2  0  0  0
 35 67  1  0  0  0
 35 68  1  0  0  0
 35 69  1  0  0  0
M  END
> <chembl_id>
CHEMBL479603

> <chembl_pref_name>
None

> <s_m_source_file>
sdf/inactives_sanitized.sdf

> <i_m_source_file_index>
222

> <i_lp_mmshare_version>
49012

> <i_m_ct_stereo_status>
1

> <i_f3d_flags>
0

> <s_epik_input>
W0NIMl0xW0NIMl1bQ0gyXVtDSDJdW0NIMl1bQ0hdMVtDSDJdW0NIMl1uMmMoW2NIXWMoYzIzKVtjSF1uYyhuMylDI04pW0NIMl1PYzRbY0hdW2NIXWMoW2NIXVtjSF00KUM1PVtDSF1bQ0gyXU4oW0NIMl1bQ0gyXTUpQyg9TylbQ0gzXQ==

> <s_epik_cmdline>
J2VwaWtfcHl0aG9uJywgJy1waHQnLCAnMC41JywgJy1waCcsICc3LjUnLCAnLW50JywgJy1tYScsICcyMDAnLCAnLWltYWUnLCAnPGluZmlsZS5tYWU+JywgJy1vbWFlJywgJzxvdXRmaWxlLm1hZT4n

> <r_lp_tautomer_probability>
1

> <r_epik_Ionization_Penalty>
  0.0000

> <r_epik_Ionization_Penalty_Charging>
  0.0000

> <r_epik_Ionization_Penalty_Neutral>
  0.0000

> <r_epik_State_Penalty>
 -0.0000

> <r_epik_Charging_Adjusted_Penalty>
0

> <i_epik_Tot_Q>
0

> <i_epik_Tot_abs_Q>
0

> <s_lp_Force_Field>
OPLS3e

> <r_lp_Energy>
65.736556

> <b_lp_Chiralities_Consistent>
1

> <s_lp_Variant>
sdf/inactives_sanitized.sdf:222-1

$$$$
sdf/inactives_sanitized.sdf:223
                    3D
 Schrodinger Suite 2020-1.
 65 67  0  0  1  0            999 V2000
   -3.3107    1.5386    0.7617 N   0  0  2  0  0  0
   -1.1615    0.7151   -0.2207 C   0  0  0  0  0  0
   -0.2423   -0.1530    0.2421 N   0  0  0  0  0  0
   -2.6449    0.3842    0.0964 C   0  0  2  0  0  0
   -2.7425    1.8170    2.1008 C   0  0  0  0  0  0
   -3.1629    3.1645    2.7271 C   0  0  0  0  0  0
    1.5874   -0.7244   -1.2766 C   0  0  0  0  0  0
    1.2077   -0.0602    0.0412 C   0  0  2  0  0  0
    2.0891   -0.0788   -2.3477 C   0  0  0  0  0  0
   -2.9098    4.4319    1.9691 C   0  0  0  0  0  0
   -0.8665    1.7235   -0.8664 O   0  0  0  0  0  0
   -3.7583    3.1363    3.8053 O   0  0  0  0  0  0
   -1.9214    4.5035    0.9783 C   0  0  0  0  0  0
   -3.6417    5.5840    2.2886 C   0  0  0  0  0  0
   -2.4338    6.8294    0.6169 C   0  0  0  0  0  0
    1.9967   -0.6176    1.2660 C   0  0  2  0  0  0
    2.4815   -0.6793   -3.6409 C   0  0  0  0  0  0
   -4.7688    1.3265    0.8827 C   0  0  0  0  0  0
   -3.4081    6.7775    1.6107 C   0  0  0  0  0  0
   -1.6883    5.6965    0.3001 C   0  0  0  0  0  0
   -2.1433    8.3093   -0.2224 Cl  0  0  0  0  0  0
   -3.3124   -0.0369   -1.2457 C   0  0  0  0  0  0
    1.5578    0.0361    2.6082 C   0  0  0  0  0  0
    3.5267   -0.5003    1.0616 C   0  0  0  0  0  0
    2.8541    0.1744   -4.6852 C   0  0  0  0  0  0
    2.4902   -2.0655   -3.8538 C   0  0  0  0  0  0
   -5.4529    0.9881   -0.4543 C   0  0  0  0  0  0
    2.1547   -0.6093    3.8702 C   0  0  0  0  0  0
   -4.8240   -0.2431   -1.1097 C   0  0  0  0  0  0
    2.8663   -2.5852   -5.0897 C   0  0  0  0  0  0
    3.2304   -0.3445   -5.9213 C   0  0  0  0  0  0
    3.2347   -1.7226   -6.1185 C   0  0  0  0  0  0
   -0.5684   -0.9875    0.7071 H   0  0  0  0  0  0
   -2.6463   -0.4740    0.7740 H   0  0  0  0  0  0
   -3.0120    1.0062    2.7799 H   0  0  0  0  0  0
   -1.6535    1.8090    2.0707 H   0  0  0  0  0  0
    1.4223   -1.7905   -1.3110 H   0  0  0  0  0  0
    1.4760    0.9980   -0.0235 H   0  0  0  0  0  0
    2.2315    0.9898   -2.2643 H   0  0  0  0  0  0
   -1.3172    3.6461    0.7283 H   0  0  0  0  0  0
   -4.4011    5.5651    3.0578 H   0  0  0  0  0  0
    1.7664   -1.6825    1.3384 H   0  0  0  0  0  0
   -4.9532    0.5250    1.6007 H   0  0  0  0  0  0
   -5.2407    2.2175    1.2984 H   0  0  0  0  0  0
   -3.9812    7.6589    1.8590 H   0  0  0  0  0  0
   -0.9271    5.7396   -0.4651 H   0  0  0  0  0  0
   -3.1390    0.7201   -2.0144 H   0  0  0  0  0  0
   -2.8567   -0.9528   -1.6266 H   0  0  0  0  0  0
    1.8051    1.0989    2.5969 H   0  0  0  0  0  0
    0.4732   -0.0093    2.7104 H   0  0  0  0  0  0
    3.8391    0.5426    0.9943 H   0  0  0  0  0  0
    3.8542   -1.0005    0.1501 H   0  0  0  0  0  0
    4.0832   -0.9612    1.8771 H   0  0  0  0  0  0
    2.8539    1.2458   -4.5441 H   0  0  0  0  0  0
    2.2121   -2.7545   -3.0710 H   0  0  0  0  0  0
   -6.5126    0.8014   -0.2777 H   0  0  0  0  0  0
   -5.4189    1.8527   -1.1192 H   0  0  0  0  0  0
    1.7216   -0.1689    4.7687 H   0  0  0  0  0  0
    3.2331   -0.4653    3.9309 H   0  0  0  0  0  0
    1.9540   -1.6807    3.9002 H   0  0  0  0  0  0
   -5.0230   -1.1279   -0.5029 H   0  0  0  0  0  0
   -5.2730   -0.4269   -2.0866 H   0  0  0  0  0  0
    2.8729   -3.6534   -5.2492 H   0  0  0  0  0  0
    3.5179    0.3190   -6.7235 H   0  0  0  0  0  0
    3.5268   -2.1262   -7.0769 H   0  0  0  0  0  0
  1  4  1  0  0  0
  1  5  1  0  0  0
  1 18  1  0  0  0
  2  4  1  0  0  0
  2  3  1  0  0  0
  2 11  2  0  0  0
  3  8  1  0  0  0
  3 33  1  0  0  0
  4 22  1  0  0  0
  4 34  1  0  0  0
  5  6  1  0  0  0
  5 35  1  0  0  0
  5 36  1  0  0  0
  6 10  1  0  0  0
  6 12  2  0  0  0
  7  8  1  0  0  0
  7  9  2  0  0  0
  7 37  1  0  0  0
  8 16  1  0  0  0
  8 38  1  0  0  0
  9 17  1  0  0  0
  9 39  1  0  0  0
 10 13  2  0  0  0
 10 14  1  0  0  0
 13 20  1  0  0  0
 13 40  1  0  0  0
 14 19  2  0  0  0
 14 41  1  0  0  0
 15 19  1  0  0  0
 15 21  1  0  0  0
 15 20  2  0  0  0
 16 23  1  0  0  0
 16 24  1  0  0  0
 16 42  1  0  0  0
 17 25  2  0  0  0
 17 26  1  0  0  0
 18 27  1  0  0  0
 18 43  1  0  0  0
 18 44  1  0  0  0
 19 45  1  0  0  0
 20 46  1  0  0  0
 22 29  1  0  0  0
 22 47  1  0  0  0
 22 48  1  0  0  0
 23 28  1  0  0  0
 23 49  1  0  0  0
 23 50  1  0  0  0
 24 51  1  0  0  0
 24 52  1  0  0  0
 24 53  1  0  0  0
 25 31  1  0  0  0
 25 54  1  0  0  0
 26 30  2  0  0  0
 26 55  1  0  0  0
 27 29  1  0  0  0
 27 56  1  0  0  0
 27 57  1  0  0  0
 28 58  1  0  0  0
 28 59  1  0  0  0
 28 60  1  0  0  0
 29 61  1  0  0  0
 29 62  1  0  0  0
 30 32  1  0  0  0
 30 63  1  0  0  0
 31 32  2  0  0  0
 31 64  1  0  0  0
 32 65  1  0  0  0
M  END
> <chembl_id>
CHEMBL101160

> <chembl_pref_name>
None

> <i_m_ct_stereo_status>
1

> <s_m_source_file>
sdf/inactives_sanitized.sdf

> <i_m_source_file_index>
223

> <i_lp_mmshare_version>
49012

> <i_f3d_flags>
0

> <s_epik_input>
W2NIXTFbY0hdYyhDbClbY0hdW2NIXWMxQyg9TylbQ0gyXU4yW0NAQEhdKFtDSDJdW0NIMl1bQ0gyXVtDSDJdMilDKD1PKVtOSF1bQ0BASF0oW0NAQEhdKFtDSDNdKVtDSDJdW0NIM10pL1tDSF09W0NIXS9jM1tjSF1bY0hdW2NIXVtjSF1bY0hdMw==

> <s_epik_cmdline>
J2VwaWtfcHl0aG9uJywgJy1waHQnLCAnMC41JywgJy1waCcsICc3LjUnLCAnLW50JywgJy1tYScsICcyMDAnLCAnLWltYWUnLCAnPGluZmlsZS5tYWU+JywgJy1vbWFlJywgJzxvdXRmaWxlLm1hZT4n

> <r_lp_tautomer_probability>
0.99990000499975

> <r_epik_Ionization_Penalty>
  0.0172

> <r_epik_Ionization_Penalty_Charging>
  0.0000

> <r_epik_Ionization_Penalty_Neutral>
  0.0172

> <r_epik_State_Penalty>
  0.0136

> <r_epik_Charging_Adjusted_Penalty>
0.0136454796386017

> <i_epik_Tot_Q>
0

> <i_epik_Tot_abs_Q>
0

> <s_lp_Force_Field>
OPLS3e

> <r_lp_Energy>
35.138498

> <b_lp_Chiralities_Consistent>
1

> <s_lp_Variant>
sdf/inactives_sanitized.sdf:223-1

$$$$
sdf/inactives_sanitized.sdf:224
                    3D
 Schrodinger Suite 2020-1.
 68 71  0  0  1  0            999 V2000
   -3.1229    1.7034    0.7214 N   0  0  1  0  0  0
   -0.8259    1.3079   -0.2830 C   0  0  0  0  0  0
   -0.0018    0.2510   -0.4148 N   0  0  0  0  0  0
   -2.3530    1.0001   -0.3396 C   0  0  2  0  0  0
   -2.6320    1.4551    2.0892 C   0  0  0  0  0  0
   -3.7051    1.4769    3.2012 C   0  0  0  0  0  0
   -3.6923    1.3211    6.9765 C   0  0  0  0  0  0
   -3.2263    1.3409    4.6168 C   0  0  0  0  0  0
    2.0153    0.7203   -1.7370 C   0  0  0  0  0  0
   -4.1569    1.4445    5.6716 C   0  0  0  0  0  0
    1.4645    0.2882   -0.3768 C   0  0  2  0  0  0
   -2.3759    1.0921    7.2538 C   0  0  0  0  0  0
    2.6821   -0.0432   -2.6276 C   0  0  0  0  0  0
   -4.3964    1.3606    8.1380 O   0  0  0  0  0  0
   -2.2111    0.9806    8.5979 O   0  0  0  0  0  0
   -0.4118    2.4574   -0.1174 O   0  0  0  0  0  0
   -3.4362    1.3683    9.1605 C   0  0  0  0  0  0
   -4.8963    1.6154    2.9099 O   0  0  0  0  0  0
   -1.8650    1.0998    4.9223 C   0  0  0  0  0  0
   -1.4273    0.9680    6.2469 C   0  0  0  0  0  0
    2.0629   -1.0152    0.2509 C   0  0  2  0  0  0
    3.2122    0.3903   -3.9378 C   0  0  0  0  0  0
   -3.4019    3.1286    0.4688 C   0  0  0  0  0  0
   -2.8912    1.2755   -1.7729 C   0  0  0  0  0  0
    1.3117   -1.5204    1.5171 C   0  0  0  0  0  0
    3.5781   -0.8873    0.5346 C   0  0  0  0  0  0
    3.6296   -0.5908   -4.8438 C   0  0  0  0  0  0
    3.3005    1.7414   -4.3025 C   0  0  0  0  0  0
   -4.0563    3.3469   -0.9077 C   0  0  0  0  0  0
    1.2501   -0.5294    2.6940 C   0  0  0  0  0  0
   -3.2161    2.7547   -2.0453 C   0  0  0  0  0  0
    3.8002    2.1013   -5.5515 C   0  0  0  0  0  0
    4.1289   -0.2318   -6.0931 C   0  0  0  0  0  0
    4.2119    1.1133   -6.4418 C   0  0  0  0  0  0
   -0.4120   -0.6467   -0.6261 H   0  0  0  0  0  0
   -2.4339   -0.0724   -0.1472 H   0  0  0  0  0  0
   -2.1599    0.4722    2.1271 H   0  0  0  0  0  0
   -1.8561    2.1842    2.3276 H   0  0  0  0  0  0
    1.8113    1.7527   -1.9790 H   0  0  0  0  0  0
   -5.2071    1.6174    5.4818 H   0  0  0  0  0  0
    1.7605    1.0833    0.3118 H   0  0  0  0  0  0
    2.8673   -1.0774   -2.3789 H   0  0  0  0  0  0
   -3.3440    2.3813    9.5575 H   0  0  0  0  0  0
   -3.7234    0.6866    9.9618 H   0  0  0  0  0  0
   -1.1234    1.0042    4.1433 H   0  0  0  0  0  0
   -0.3872    0.7755    6.4653 H   0  0  0  0  0  0
    1.9436   -1.8131   -0.4837 H   0  0  0  0  0  0
   -4.0807    3.5020    1.2360 H   0  0  0  0  0  0
   -2.4903    3.7177    0.5710 H   0  0  0  0  0  0
   -2.1927    0.9145   -2.5305 H   0  0  0  0  0  0
   -3.7870    0.6716   -1.9262 H   0  0  0  0  0  0
    0.2940   -1.8076    1.2495 H   0  0  0  0  0  0
    1.7776   -2.4436    1.8649 H   0  0  0  0  0  0
    3.7888   -0.0860    1.2433 H   0  0  0  0  0  0
    4.1487   -0.6752   -0.3690 H   0  0  0  0  0  0
    3.9815   -1.8108    0.9518 H   0  0  0  0  0  0
    3.5678   -1.6381   -4.5847 H   0  0  0  0  0  0
    2.9928    2.5248   -3.6267 H   0  0  0  0  0  0
   -5.0684    2.9392   -0.9072 H   0  0  0  0  0  0
   -4.1801    4.4173   -1.0756 H   0  0  0  0  0  0
    0.7058   -0.9627    3.5335 H   0  0  0  0  0  0
    0.7380    0.3928    2.4191 H   0  0  0  0  0  0
    2.2453   -0.2670    3.0523 H   0  0  0  0  0  0
   -3.7396    2.8573   -2.9965 H   0  0  0  0  0  0
   -2.2883    3.3206   -2.1432 H   0  0  0  0  0  0
    3.8687    3.1431   -5.8281 H   0  0  0  0  0  0
    4.4500   -0.9932   -6.7886 H   0  0  0  0  0  0
    4.5991    1.3929   -7.4107 H   0  0  0  0  0  0
  1  4  1  0  0  0
  1  5  1  0  0  0
  1 23  1  0  0  0
  2  4  1  0  0  0
  2  3  1  0  0  0
  2 16  2  0  0  0
  3 11  1  0  0  0
  3 35  1  0  0  0
  4 24  1  0  0  0
  4 36  1  0  0  0
  5  6  1  0  0  0
  5 37  1  0  0  0
  5 38  1  0  0  0
  6  8  1  0  0  0
  6 18  2  0  0  0
  7 10  2  0  0  0
  7 14  1  0  0  0
  7 12  1  0  0  0
  8 10  1  0  0  0
  8 19  2  0  0  0
  9 11  1  0  0  0
  9 13  2  0  0  0
  9 39  1  0  0  0
 10 40  1  0  0  0
 11 21  1  0  0  0
 11 41  1  0  0  0
 12 20  2  0  0  0
 12 15  1  0  0  0
 13 22  1  0  0  0
 13 42  1  0  0  0
 14 17  1  0  0  0
 15 17  1  0  0  0
 17 43  1  0  0  0
 17 44  1  0  0  0
 19 20  1  0  0  0
 19 45  1  0  0  0
 20 46  1  0  0  0
 21 25  1  0  0  0
 21 26  1  0  0  0
 21 47  1  0  0  0
 22 27  2  0  0  0
 22 28  1  0  0  0
 23 29  1  0  0  0
 23 48  1  0  0  0
 23 49  1  0  0  0
 24 31  1  0  0  0
 24 50  1  0  0  0
 24 51  1  0  0  0
 25 30  1  0  0  0
 25 52  1  0  0  0
 25 53  1  0  0  0
 26 54  1  0  0  0
 26 55  1  0  0  0
 26 56  1  0  0  0
 27 33  1  0  0  0
 27 57  1  0  0  0
 28 32  2  0  0  0
 28 58  1  0  0  0
 29 31  1  0  0  0
 29 59  1  0  0  0
 29 60  1  0  0  0
 30 61  1  0  0  0
 30 62  1  0  0  0
 30 63  1  0  0  0
 31 64  1  0  0  0
 31 65  1  0  0  0
 32 34  1  0  0  0
 32 66  1  0  0  0
 33 34  2  0  0  0
 33 67  1  0  0  0
 34 68  1  0  0  0
M  END
> <chembl_id>
CHEMBL101614

> <chembl_pref_name>
None

> <i_m_ct_stereo_status>
1

> <s_m_source_file>
sdf/inactives_sanitized.sdf

> <i_m_source_file_index>
224

> <i_lp_mmshare_version>
49012

> <i_f3d_flags>
0

> <s_epik_input>
TzFbQ0gyXU9jKGMxMilbY0hdW2NIXWMoW2NIXTIpQyg9TylbQ0gyXU4zW0NAQEhdKFtDSDJdW0NIMl1bQ0gyXVtDSDJdMylDKD1PKVtOSF1bQ0BASF0oW0NAQEhdKFtDSDNdKVtDSDJdW0NIM10pL1tDSF09W0NIXS9jNFtjSF1bY0hdW2NIXVtjSF1bY0hdNA==

> <s_epik_cmdline>
J2VwaWtfcHl0aG9uJywgJy1waHQnLCAnMC41JywgJy1waCcsICc3LjUnLCAnLW50JywgJy1tYScsICcyMDAnLCAnLWltYWUnLCAnPGluZmlsZS5tYWU+JywgJy1vbWFlJywgJzxvdXRmaWxlLm1hZT4n

> <r_lp_tautomer_probability>
0.99990000499975

> <r_epik_Ionization_Penalty>
  0.0320

> <r_epik_Ionization_Penalty_Charging>
  0.0000

> <r_epik_Ionization_Penalty_Neutral>
  0.0320

> <r_epik_State_Penalty>
  0.0264

> <r_epik_Charging_Adjusted_Penalty>
0.0264400689711553

> <i_epik_Tot_Q>
0

> <i_epik_Tot_abs_Q>
0

> <s_epik_Chemistry_Notes>
This compound contains an acetal/aminal-like group ( X-CH(R)-Y where X, Y are N, S, or O) that may be acid/base labile, releasing an aldehyde.

> <s_lp_Force_Field>
OPLS3e

> <r_lp_Energy>
45.921397

> <b_lp_Chiralities_Consistent>
1

> <s_lp_Variant>
sdf/inactives_sanitized.sdf:224-1

$$$$
sdf/inactives_sanitized.sdf:225
                    3D
 Schrodinger Suite 2020-1.
 63 65  0  0  1  0            999 V2000
   -0.7553    1.9134   -1.1665 C   0  0  0  0  0  0
   -1.3148    3.1934   -1.2514 C   0  0  0  0  0  0
   -1.7813    3.8068   -0.0824 C   0  0  0  0  0  0
   -1.6771    3.1568    1.1476 C   0  0  0  0  0  0
   -1.0959    1.8917    1.2233 C   0  0  0  0  0  0
   -0.6246    1.2657    0.0664 C   0  0  0  0  0  0
    0.0497   -0.1012    0.1475 C   0  0  0  0  0  0
    1.6016   -0.0114    0.1837 C   0  0  2  0  0  0
    2.1582    0.6809   -0.9844 N   0  0  0  0  0  0
    2.2295   -1.4141    0.2810 C   0  0  0  0  0  0
    2.1146   -2.2031   -0.6587 O   0  0  0  0  0  0
    2.8499   -1.7139    1.4344 N   0  0  0  0  0  0
    3.5294   -2.9799    1.6915 C   0  0  0  0  0  0
    4.7029   -3.1891    0.8248 C   0  0  0  0  0  0
    5.6245   -3.3530    0.1446 N   0  0  0  0  0  0
    2.6635    1.9285   -0.9930 C   0  0  0  0  0  0
    2.7522    2.6478    0.0034 O   0  0  0  0  0  0
    3.0646    2.3839   -2.3028 C   0  0  0  0  0  0
   -1.3871    3.8933   -2.5680 C   0  0  0  0  0  0
   -1.0097    3.4532   -3.7466 N   0  0  0  0  0  0
   -1.2533    4.4862   -4.6464 N   0  0  0  0  0  0
   -1.7589    5.4648   -3.9391 C   0  0  0  0  0  0
   -1.8673    5.1634   -2.6215 O   0  0  0  0  0  0
    2.5933    2.0074   -3.5561 C   0  0  0  0  0  0
    3.2064    2.8344   -4.5096 C   0  0  0  0  0  0
    3.9813    3.7095   -3.9006 N   0  0  0  0  0  0
    3.8946    3.4494   -2.5877 N   0  0  0  0  0  0
    4.6285    4.3129   -1.6680 C   0  0  0  0  0  0
   -2.1752    6.8381   -4.4076 C   0  0  0  0  0  0
   -0.9703    7.7730   -4.2685 N   0  3  0  0  0  0
    3.0398    2.8091   -6.0376 C   0  0  0  0  0  0
    3.3575    1.3888   -6.5592 C   0  0  0  0  0  0
    3.9788    3.8122   -6.7577 C   0  0  0  0  0  0
    1.5781    3.1644   -6.3900 C   0  0  0  0  0  0
   -0.3875    1.4267   -2.0588 H   0  0  0  0  0  0
   -2.2213    4.7928   -0.1174 H   0  0  0  0  0  0
   -2.0369    3.6390    2.0447 H   0  0  0  0  0  0
   -1.0038    1.4051    2.1837 H   0  0  0  0  0  0
   -0.3306   -0.6327    1.0223 H   0  0  0  0  0  0
   -0.2905   -0.6975   -0.7018 H   0  0  0  0  0  0
    1.8678    0.5428    1.0872 H   0  0  0  0  0  0
    2.1569    0.1495   -1.8430 H   0  0  0  0  0  0
    2.9199   -1.0070    2.1524 H   0  0  0  0  0  0
    3.8705   -2.9932    2.7265 H   0  0  0  0  0  0
    2.8439   -3.8201    1.5690 H   0  0  0  0  0  0
    1.8790    1.2242   -3.7648 H   0  0  0  0  0  0
    5.1229    3.7028   -0.9114 H   0  0  0  0  0  0
    3.9304    4.9959   -1.1835 H   0  0  0  0  0  0
    5.3878    4.8916   -2.1974 H   0  0  0  0  0  0
   -2.4354    6.8841   -5.4661 H   0  0  0  0  0  0
   -2.9737    7.2919   -3.8193 H   0  0  0  0  0  0
   -1.2096    8.7018   -4.5854 H   0  0  0  0  0  0
   -0.1984    7.4302   -4.8230 H   0  0  0  0  0  0
    3.2373    1.3189   -7.6412 H   0  0  0  0  0  0
    2.7050    0.6372   -6.1125 H   0  0  0  0  0  0
    4.3831    1.0995   -6.3242 H   0  0  0  0  0  0
    5.0281    3.6022   -6.5443 H   0  0  0  0  0  0
    3.7872    4.8394   -6.4435 H   0  0  0  0  0  0
    3.8539    3.7761   -7.8409 H   0  0  0  0  0  0
    1.4007    3.1303   -7.4658 H   0  0  0  0  0  0
    1.3211    4.1676   -6.0467 H   0  0  0  0  0  0
    0.8716    2.4767   -5.9228 H   0  0  0  0  0  0
   -0.6806    7.8248   -3.3020 H   0  0  0  0  0  0
  1  6  2  0  0  0
  1  2  1  0  0  0
  1 35  1  0  0  0
  2 19  1  0  0  0
  2  3  2  0  0  0
  3  4  1  0  0  0
  3 36  1  0  0  0
  4  5  2  0  0  0
  4 37  1  0  0  0
  5  6  1  0  0  0
  5 38  1  0  0  0
  6  7  1  0  0  0
  7  8  1  0  0  0
  7 39  1  0  0  0
  7 40  1  0  0  0
  8  9  1  0  0  0
  8 10  1  0  0  0
  8 41  1  0  0  0
  9 16  1  0  0  0
  9 42  1  0  0  0
 10 11  2  0  0  0
 10 12  1  0  0  0
 12 13  1  0  0  0
 12 43  1  0  0  0
 13 14  1  0  0  0
 13 44  1  0  0  0
 13 45  1  0  0  0
 14 15  3  0  0  0
 16 17  2  0  0  0
 16 18  1  0  0  0
 18 24  2  0  0  0
 18 27  1  0  0  0
 19 20  2  0  0  0
 19 23  1  0  0  0
 20 21  1  0  0  0
 21 22  2  0  0  0
 22 23  1  0  0  0
 22 29  1  0  0  0
 24 25  1  0  0  0
 24 46  1  0  0  0
 25 26  2  0  0  0
 25 31  1  0  0  0
 26 27  1  0  0  0
 27 28  1  0  0  0
 28 47  1  0  0  0
 28 48  1  0  0  0
 28 49  1  0  0  0
 29 30  1  0  0  0
 29 50  1  0  0  0
 29 51  1  0  0  0
 30 52  1  0  0  0
 30 53  1  0  0  0
 30 63  1  0  0  0
 31 32  1  0  0  0
 31 33  1  0  0  0
 31 34  1  0  0  0
 32 54  1  0  0  0
 32 55  1  0  0  0
 32 56  1  0  0  0
 33 57  1  0  0  0
 33 58  1  0  0  0
 33 59  1  0  0  0
 34 60  1  0  0  0
 34 61  1  0  0  0
 34 62  1  0  0  0
M  CHG  1  30   1
M  END
> <chembl_id>
CHEMBL557455

> <chembl_pref_name>
None

> <i_m_ct_stereo_status>
1

> <s_m_source_file>
sdf/inactives_sanitized.sdf

> <i_m_source_file_index>
225

> <i_lp_mmshare_version>
49012

> <i_f3d_flags>
0

> <s_epik_input>
W05IMl1bQ0gyXWMobzEpbm5jMS1jMltjSF1jKFtjSF1bY0hdW2NIXTIpW0NIMl1bQ0BASF0oQyg9TylbTkhdW0NIMl1DI04pW05IXUMoPU8pYzNbY0hdYyhDKFtDSDNdKShbQ0gzXSlbQ0gzXSlubjNbQ0gzXQ==

> <s_epik_cmdline>
J2VwaWtfcHl0aG9uJywgJy1waHQnLCAnMC41JywgJy1waCcsICc3LjUnLCAnLW50JywgJy1tYScsICcyMDAnLCAnLWltYWUnLCAnPGluZmlsZS5tYWU+JywgJy1vbWFlJywgJzxvdXRmaWxlLm1hZT4n

> <r_lp_tautomer_probability>
1

> <r_epik_Ionization_Penalty>
  0.0151

> <r_epik_Ionization_Penalty_Charging>
  0.0151

> <r_epik_Ionization_Penalty_Neutral>
  0.0000

> <r_epik_State_Penalty>
  0.0119

> <r_epik_Charging_Adjusted_Penalty>
0.026965300605322

> <i_epik_Tot_Q>
1

> <i_epik_Tot_abs_Q>
1

> <s_lp_Force_Field>
OPLS3e

> <r_lp_Energy>
22.947574

> <b_lp_Chiralities_Consistent>
1

> <s_lp_Variant>
sdf/inactives_sanitized.sdf:225-1

$$$$
sdf/inactives_sanitized.sdf:226
                    3D
 Schrodinger Suite 2020-1.
 47 49  0  0  1  0            999 V2000
   -5.0372   -0.9689    0.7515 N   0  0  0  0  0  0
   -4.3751   -0.0135    0.0390 C   0  0  0  0  0  0
   -5.0349    1.0049   -0.6694 C   0  0  0  0  0  0
   -6.3925   -0.9581    0.8081 C   0  0  0  0  0  0
   -7.4180    1.8135   -1.1272 N   0  0  0  0  0  0
   -8.6167    1.2924   -0.6921 C   0  0  0  0  0  0
   -8.4984    0.2299    0.0612 N   0  0  0  0  0  0
   -7.1438    0.0241    0.1414 C   0  0  0  0  0  0
   -6.4329    1.0042   -0.5976 C   0  0  0  0  0  0
   -6.9913   -2.0224    1.5998 C   0  0  0  0  0  0
   -7.4681   -2.8683    2.2293 N   0  0  0  0  0  0
   -2.8826   -0.1167    0.0458 C   0  0  0  0  0  0
   -2.0841    1.0329   -0.0214 C   0  0  0  0  0  0
   -0.6842    0.9627   -0.0144 C   0  0  0  0  0  0
   -0.0536   -0.2904    0.0631 C   0  0  0  0  0  0
   -0.8465   -1.4462    0.1318 C   0  0  0  0  0  0
   -2.2359   -1.3572    0.1224 C   0  0  0  0  0  0
    0.1530    2.2445   -0.0944 C   0  0  0  0  0  0
    0.9179    2.3510    0.9928 F   0  0  0  0  0  0
    0.9439    2.1992   -1.1677 F   0  0  0  0  0  0
   -0.5941    3.3467   -0.1816 F   0  0  0  0  0  0
   -7.2343    2.9853   -1.9658 C   0  0  0  0  0  0
    1.3295   -0.3124    0.0751 O   0  0  0  0  0  0
    2.0237   -1.5568    0.0424 C   0  0  0  0  0  0
    3.5394   -1.2962   -0.0407 C   0  0  0  0  0  0
    3.8887   -0.2684   -1.1442 N   0  3  0  0  0  0
    3.5309   -0.7506   -2.5649 C   0  0  0  0  0  0
    5.3671    0.1592   -1.0644 C   0  0  0  0  0  0
   -4.4988    1.7477   -1.2417 H   0  0  0  0  0  0
   -9.5451    1.7641   -0.9806 H   0  0  0  0  0  0
   -2.5632    1.9997   -0.0692 H   0  0  0  0  0  0
   -0.4037   -2.4283    0.1962 H   0  0  0  0  0  0
   -2.8114   -2.2704    0.1740 H   0  0  0  0  0  0
   -6.6960    2.7001   -2.8703 H   0  0  0  0  0  0
   -6.6531    3.7300   -1.4208 H   0  0  0  0  0  0
   -8.2004    3.4112   -2.2400 H   0  0  0  0  0  0
    1.8062   -2.1305    0.9449 H   0  0  0  0  0  0
    1.7017   -2.1579   -0.8096 H   0  0  0  0  0  0
    3.9008   -0.8532    0.8889 H   0  0  0  0  0  0
    4.1153   -2.1973   -0.2577 H   0  0  0  0  0  0
    4.0761   -1.6774   -2.7501 H   0  0  0  0  0  0
    3.8280    0.0356   -3.2602 H   0  0  0  0  0  0
    2.4520   -0.9004   -2.6028 H   0  0  0  0  0  0
    5.9810   -0.7234   -1.2517 H   0  0  0  0  0  0
    5.5355    0.5633   -0.0652 H   0  0  0  0  0  0
    5.5246    0.9279   -1.8222 H   0  0  0  0  0  0
    3.3345    0.5572   -0.9607 H   0  0  0  0  0  0
  1  2  2  0  0  0
  1  4  1  0  0  0
  2 12  1  0  0  0
  2  3  1  0  0  0
  3  9  2  0  0  0
  3 29  1  0  0  0
  4  8  2  0  0  0
  4 10  1  0  0  0
  5  6  1  0  0  0
  5  9  1  0  0  0
  5 22  1  0  0  0
  6  7  2  0  0  0
  6 30  1  0  0  0
  7  8  1  0  0  0
  8  9  1  0  0  0
 10 11  3  0  0  0
 12 17  2  0  0  0
 12 13  1  0  0  0
 13 14  2  0  0  0
 13 31  1  0  0  0
 14 15  1  0  0  0
 14 18  1  0  0  0
 15 16  2  0  0  0
 15 23  1  0  0  0
 16 17  1  0  0  0
 16 32  1  0  0  0
 17 33  1  0  0  0
 18 19  1  0  0  0
 18 20  1  0  0  0
 18 21  1  0  0  0
 22 34  1  0  0  0
 22 35  1  0  0  0
 22 36  1  0  0  0
 23 24  1  0  0  0
 24 25  1  0  0  0
 24 37  1  0  0  0
 24 38  1  0  0  0
 25 26  1  0  0  0
 25 39  1  0  0  0
 25 40  1  0  0  0
 26 27  1  0  0  0
 26 28  1  0  0  0
 26 47  1  0  0  0
 27 41  1  0  0  0
 27 42  1  0  0  0
 27 43  1  0  0  0
 28 44  1  0  0  0
 28 45  1  0  0  0
 28 46  1  0  0  0
M  CHG  1  26   1
M  END
> <chembl_id>
CHEMBL1209084

> <chembl_pref_name>
None

> <s_m_source_file>
sdf/inactives_sanitized.sdf

> <i_m_source_file_index>
226

> <i_lp_mmshare_version>
49012

> <i_m_ct_stereo_status>
1

> <i_f3d_flags>
0

> <s_epik_input>
bjFbY0hdbihbQ0gzXSljKGMxMilbY0hdYyhuYzJDI04pLWMzW2NIXWMoQyhGKShGKUYpYyhbY0hdW2NIXTMpT1tDSDJdW0NIMl1OKFtDSDNdKVtDSDNd

> <s_epik_cmdline>
J2VwaWtfcHl0aG9uJywgJy1waHQnLCAnMC41JywgJy1waCcsICc3LjUnLCAnLW50JywgJy1tYScsICcyMDAnLCAnLWltYWUnLCAnPGluZmlsZS5tYWU+JywgJy1vbWFlJywgJzxvdXRmaWxlLm1hZT4n

> <r_lp_tautomer_probability>
1

> <r_epik_Ionization_Penalty>
  0.0751

> <r_epik_Ionization_Penalty_Charging>
  0.0751

> <r_epik_Ionization_Penalty_Neutral>
  0.0000

> <r_epik_State_Penalty>
  0.0662

> <r_epik_Charging_Adjusted_Penalty>
0.141342031683279

> <i_epik_Tot_Q>
1

> <i_epik_Tot_abs_Q>
1

> <s_lp_Force_Field>
OPLS3e

> <r_lp_Energy>
38.67875

> <b_lp_Chiralities_Consistent>
1

> <s_lp_Variant>
sdf/inactives_sanitized.sdf:226-1

$$$$
sdf/inactives_sanitized.sdf:227
                    3D
 Schrodinger Suite 2020-1.
 79 82  0  0  1  0            999 V2000
   -6.3364   -1.3538    1.9996 C   0  0  0  0  0  0
   -4.8193   -1.2170    2.1853 C   0  0  0  0  0  0
   -4.0593   -2.5259    1.8937 C   0  0  0  0  0  0
   -2.5387   -2.4359    2.1189 C   0  0  0  0  0  0
   -1.8910   -1.4820    1.2222 N   0  0  0  0  0  0
   -0.5593   -1.3720    1.0660 C   0  0  0  0  0  0
    0.2921   -2.0486    1.6454 O   0  0  0  0  0  0
   -0.1621   -0.2402    0.0272 C   0  0  0  0  0  0
   -1.0332    0.3442   -0.6276 O   0  0  0  0  0  0
    1.3419    0.0433   -0.1060 C   0  0  2  0  0  0
    1.8015    1.1673    0.8610 C   0  0  0  0  0  0
    1.7625    0.8195    2.3640 C   0  0  0  0  0  0
    2.3716    1.9182    3.2452 C   0  0  0  0  0  0
    1.6299    0.4276   -1.4997 N   0  0  0  0  0  0
    1.6107   -0.3809   -2.5774 C   0  0  0  0  0  0
    1.3301   -1.5795   -2.5117 O   0  0  0  0  0  0
    1.8673    0.2914   -3.9423 C   0  0  2  0  0  0
    0.6182    0.2998   -4.8502 C   0  0  0  0  0  0
    1.0974   -0.2196   -6.1996 C   0  0  2  0  0  0
    2.2906   -1.1117   -5.8580 C   0  0  0  0  0  0
    2.9026   -0.4419   -4.7058 N   0  0  0  0  0  0
    4.2289   -0.1420   -4.6048 C   0  0  0  0  0  0
    4.6115    0.7407   -3.8300 O   0  0  0  0  0  0
    5.2972   -0.9631   -5.4056 C   0  0  0  0  0  0
    6.1764   -0.0534   -6.2699 C   0  0  0  0  0  0
    6.7449   -0.6432   -5.0178 C   0  0  0  0  0  0
    5.0003   -2.4140   -5.8143 C   0  0  0  0  0  0
    5.2113   -2.7290   -7.1229 N   0  0  0  0  0  0
    4.9490   -3.9970   -7.5291 C   0  0  0  0  0  0
    4.4870   -4.9884   -6.6626 C   0  0  0  0  0  0
    4.1690   -6.5832   -7.2394 Cl  0  0  0  0  0  0
    4.2912   -4.6632   -5.3193 C   0  0  0  0  0  0
    4.5533   -3.3635   -4.8824 C   0  0  0  0  0  0
    4.3762   -3.0397   -3.5807 F   0  0  0  0  0  0
    1.6169    1.2450   -7.3072 S   0  0  0  0  0  0
    0.4109    1.8364   -7.8971 O   0  0  0  0  0  0
    2.5445    2.0975   -6.5534 O   0  0  0  0  0  0
    2.5495    0.4832   -8.6504 C   0  0  0  0  0  0
    3.9183    0.7589   -8.7567 C   0  0  0  0  0  0
    4.6893    0.1613   -9.7520 C   0  0  0  0  0  0
    4.0981   -0.7163  -10.6569 C   0  0  0  0  0  0
    2.7350   -0.9920  -10.5670 C   0  0  0  0  0  0
    1.9549   -0.3986   -9.5717 C   0  0  0  0  0  0
    0.2708   -0.7915   -9.5259 Cl  0  0  0  0  0  0
   -6.8421   -0.4139    2.2225 H   0  0  0  0  0  0
   -6.7497   -2.1161    2.6610 H   0  0  0  0  0  0
   -6.5857   -1.6288    0.9742 H   0  0  0  0  0  0
   -4.4535   -0.4219    1.5346 H   0  0  0  0  0  0
   -4.6129   -0.8944    3.2068 H   0  0  0  0  0  0
   -4.4553   -3.3156    2.5339 H   0  0  0  0  0  0
   -4.2560   -2.8500    0.8704 H   0  0  0  0  0  0
   -2.3488   -2.0988    3.1397 H   0  0  0  0  0  0
   -2.0915   -3.4274    2.0225 H   0  0  0  0  0  0
   -2.4958   -0.8671    0.6967 H   0  0  0  0  0  0
    1.9446   -0.8457    0.0941 H   0  0  0  0  0  0
    2.8286    1.4342    0.6043 H   0  0  0  0  0  0
    1.2196    2.0733    0.6793 H   0  0  0  0  0  0
    0.7337    0.6537    2.6841 H   0  0  0  0  0  0
    2.2989   -0.1143    2.5394 H   0  0  0  0  0  0
    2.3204    1.6435    4.2992 H   0  0  0  0  0  0
    1.8405    2.8630    3.1235 H   0  0  0  0  0  0
    3.4203    2.0887    2.9991 H   0  0  0  0  0  0
    1.8387    1.4058   -1.6382 H   0  0  0  0  0  0
    2.2007    1.3072   -3.7200 H   0  0  0  0  0  0
   -0.1570   -0.3876   -4.5041 H   0  0  0  0  0  0
    0.1533    1.2837   -4.9244 H   0  0  0  0  0  0
    0.3222   -0.7392   -6.7608 H   0  0  0  0  0  0
    1.8779   -2.0508   -5.4863 H   0  0  0  0  0  0
    2.9258   -1.3000   -6.7214 H   0  0  0  0  0  0
    6.5438   -0.4162   -7.2298 H   0  0  0  0  0  0
    5.9868    1.0208   -6.2990 H   0  0  0  0  0  0
    7.4877   -1.4366   -5.1056 H   0  0  0  0  0  0
    6.9745    0.0165   -4.1801 H   0  0  0  0  0  0
    5.1167   -4.2100   -8.5747 H   0  0  0  0  0  0
    3.9410   -5.4091   -4.6206 H   0  0  0  0  0  0
    4.3989    1.4345   -8.0657 H   0  0  0  0  0  0
    5.7454    0.3776   -9.8188 H   0  0  0  0  0  0
    4.6947   -1.1805  -11.4284 H   0  0  0  0  0  0
    2.2835   -1.6720  -11.2746 H   0  0  0  0  0  0
  1  2  1  0  0  0
  1 45  1  0  0  0
  1 46  1  0  0  0
  1 47  1  0  0  0
  2  3  1  0  0  0
  2 48  1  0  0  0
  2 49  1  0  0  0
  3  4  1  0  0  0
  3 50  1  0  0  0
  3 51  1  0  0  0
  4  5  1  0  0  0
  4 52  1  0  0  0
  4 53  1  0  0  0
  5  6  1  0  0  0
  5 54  1  0  0  0
  6  7  2  0  0  0
  6  8  1  0  0  0
  8  9  2  0  0  0
  8 10  1  0  0  0
 10 11  1  0  0  0
 10 14  1  0  0  0
 10 55  1  0  0  0
 11 12  1  0  0  0
 11 56  1  0  0  0
 11 57  1  0  0  0
 12 13  1  0  0  0
 12 58  1  0  0  0
 12 59  1  0  0  0
 13 60  1  0  0  0
 13 61  1  0  0  0
 13 62  1  0  0  0
 14 15  1  0  0  0
 14 63  1  0  0  0
 15 16  2  0  0  0
 15 17  1  0  0  0
 17 18  1  0  0  0
 17 21  1  0  0  0
 17 64  1  0  0  0
 18 19  1  0  0  0
 18 65  1  0  0  0
 18 66  1  0  0  0
 19 20  1  0  0  0
 19 35  1  0  0  0
 19 67  1  0  0  0
 20 21  1  0  0  0
 20 68  1  0  0  0
 20 69  1  0  0  0
 21 22  1  0  0  0
 22 23  2  0  0  0
 22 24  1  0  0  0
 24 25  1  0  0  0
 24 26  1  0  0  0
 24 27  1  0  0  0
 25 26  1  0  0  0
 25 70  1  0  0  0
 25 71  1  0  0  0
 26 72  1  0  0  0
 26 73  1  0  0  0
 27 28  2  0  0  0
 27 33  1  0  0  0
 28 29  1  0  0  0
 29 30  2  0  0  0
 29 74  1  0  0  0
 30 31  1  0  0  0
 30 32  1  0  0  0
 32 33  2  0  0  0
 32 75  1  0  0  0
 33 34  1  0  0  0
 35 36  2  0  0  0
 35 37  2  0  0  0
 35 38  1  0  0  0
 38 39  2  0  0  0
 38 43  1  0  0  0
 39 40  1  0  0  0
 39 76  1  0  0  0
 40 41  2  0  0  0
 40 77  1  0  0  0
 41 42  1  0  0  0
 41 78  1  0  0  0
 42 43  2  0  0  0
 42 79  1  0  0  0
 43 44  1  0  0  0
M  END
> <chembl_id>
CHEMBL3649421

> <chembl_pref_name>
None

> <i_m_ct_stereo_status>
1

> <s_m_source_file>
sdf/inactives_sanitized.sdf

> <i_m_source_file_index>
227

> <i_lp_mmshare_version>
49012

> <i_f3d_flags>
0

> <s_epik_input>
W0NIM11bQ0gyXVtDSDJdW0NIMl1bTkhdQyg9TylDKD1PKVtDQEhdKFtDSDJdW0NIMl1bQ0gzXSlbTkhdQyg9TylbQ0BASF0xW0NIMl1bQ0BASF0oUyg9TykoPU8pYzJbY0hdW2NIXVtjSF1bY0hdYzJDbClbQ0gyXU4xQyg9TylDMyhbQ0gyXVtDSDJdMyljNG5bY0hdYyhDbClbY0hdYzRG

> <s_epik_cmdline>
J2VwaWtfcHl0aG9uJywgJy1waHQnLCAnMC41JywgJy1waCcsICc3LjUnLCAnLW50JywgJy1tYScsICcyMDAnLCAnLWltYWUnLCAnPGluZmlsZS5tYWU+JywgJy1vbWFlJywgJzxvdXRmaWxlLm1hZT4n

> <r_lp_tautomer_probability>
1

> <r_epik_Ionization_Penalty>
  0.0000

> <r_epik_Ionization_Penalty_Charging>
  0.0000

> <r_epik_Ionization_Penalty_Neutral>
  0.0000

> <r_epik_State_Penalty>
 -0.0000

> <r_epik_Charging_Adjusted_Penalty>
0

> <i_epik_Tot_Q>
0

> <i_epik_Tot_abs_Q>
0

> <s_lp_Force_Field>
OPLS3e

> <r_lp_Energy>
46.603825

> <b_lp_Chiralities_Consistent>
1

> <s_lp_Variant>
sdf/inactives_sanitized.sdf:227-1

$$$$
sdf/inactives_sanitized.sdf:228
                    3D
 Schrodinger Suite 2020-1.
 55 56  0  0  1  0            999 V2000
    2.0700    0.5013   -1.4091 C   0  0  0  0  0  0
    3.2689    1.3347   -1.2821 C   0  0  0  0  0  0
   -0.7894    1.1004   -0.3406 C   0  0  0  0  0  0
    3.8564    1.6997   -0.1650 N   0  0  0  0  0  0
   -0.0453   -0.0754   -0.2626 N   0  0  0  0  0  0
    1.4275   -0.0584   -0.1294 C   0  0  1  0  0  0
    4.0466    1.9457   -2.7188 S   0  0  0  0  0  0
    1.5945    0.2406   -2.5181 O   0  0  0  0  0  0
   -2.1023    0.7808   -0.3506 O   0  0  0  0  0  0
    4.9174    2.4530   -0.3784 C   0  0  0  0  0  0
   -0.3449    2.2508   -0.3694 O   0  0  0  0  0  0
    5.2216    2.7258   -1.7062 C   0  0  0  0  0  0
   -3.1262    1.7764   -0.4114 C   0  0  2  0  0  0
   -4.4322    1.1811    0.1622 C   0  0  0  0  0  0
   -4.3378    0.6398    1.6119 C   0  0  0  0  0  0
    1.9332   -1.5016    0.1401 C   0  0  0  0  0  0
   -3.3131    2.2665   -1.8614 C   0  0  0  0  0  0
   -5.6762    0.0038    2.0557 C   0  0  0  0  0  0
   -3.9412    1.7267    2.6416 C   0  0  0  0  0  0
    3.4303   -1.6235    0.4987 C   0  0  0  0  0  0
    3.8328   -3.0501    0.9110 C   0  0  0  0  0  0
    5.3229   -3.1729    1.2574 C   0  0  0  0  0  0
   -3.7994    1.1367    4.0597 C   0  0  0  0  0  0
   -5.5672   -0.6229    3.4608 C   0  0  0  0  0  0
   -5.0857    0.4077    4.5044 C   0  0  0  0  0  0
   -0.5254   -0.9005    0.0656 H   0  0  0  0  0  0
    1.6655    0.5342    0.7565 H   0  0  0  0  0  0
    5.4817    2.8125    0.4693 H   0  0  0  0  0  0
    6.0300    3.3128   -2.1172 H   0  0  0  0  0  0
   -2.8446    2.6327    0.2034 H   0  0  0  0  0  0
   -5.2157    1.9394    0.1177 H   0  0  0  0  0  0
   -4.7625    0.3724   -0.4921 H   0  0  0  0  0  0
   -3.5790   -0.1447    1.6448 H   0  0  0  0  0  0
    1.3527   -1.9162    0.9665 H   0  0  0  0  0  0
    1.7071   -2.1433   -0.7144 H   0  0  0  0  0  0
   -4.1093    3.0085   -1.9256 H   0  0  0  0  0  0
   -3.5696    1.4437   -2.5295 H   0  0  0  0  0  0
   -2.4053    2.7332   -2.2445 H   0  0  0  0  0  0
   -6.4750    0.7470    2.0253 H   0  0  0  0  0  0
   -5.9793   -0.7588    1.3369 H   0  0  0  0  0  0
   -3.0029    2.2006    2.3536 H   0  0  0  0  0  0
   -4.6745    2.5348    2.6330 H   0  0  0  0  0  0
    4.0399   -1.3186   -0.3529 H   0  0  0  0  0  0
    3.6656   -0.9355    1.3122 H   0  0  0  0  0  0
    3.2401   -3.3642    1.7714 H   0  0  0  0  0  0
    3.5945   -3.7458    0.1050 H   0  0  0  0  0  0
    5.5720   -4.1929    1.5508 H   0  0  0  0  0  0
    5.5918   -2.5157    2.0852 H   0  0  0  0  0  0
    5.9504   -2.9117    0.4047 H   0  0  0  0  0  0
   -2.9605    0.4394    4.0812 H   0  0  0  0  0  0
   -3.5558    1.9273    4.7702 H   0  0  0  0  0  0
   -6.5312   -1.0344    3.7618 H   0  0  0  0  0  0
   -4.8724   -1.4636    3.4319 H   0  0  0  0  0  0
   -4.9224   -0.0830    5.4646 H   0  0  0  0  0  0
   -5.8741    1.1435    4.6711 H   0  0  0  0  0  0
  1  2  1  0  0  0
  1  6  1  0  0  0
  1  8  2  0  0  0
  2  4  2  0  0  0
  2  7  1  0  0  0
  3  5  1  0  0  0
  3  9  1  0  0  0
  3 11  2  0  0  0
  4 10  1  0  0  0
  5  6  1  0  0  0
  5 26  1  0  0  0
  6 16  1  0  0  0
  6 27  1  0  0  0
  7 12  1  0  0  0
  9 13  1  0  0  0
 10 12  2  0  0  0
 10 28  1  0  0  0
 12 29  1  0  0  0
 13 14  1  0  0  0
 13 17  1  0  0  0
 13 30  1  0  0  0
 14 15  1  0  0  0
 14 31  1  0  0  0
 14 32  1  0  0  0
 15 18  1  0  0  0
 15 19  1  0  0  0
 15 33  1  0  0  0
 16 20  1  0  0  0
 16 34  1  0  0  0
 16 35  1  0  0  0
 17 36  1  0  0  0
 17 37  1  0  0  0
 17 38  1  0  0  0
 18 24  1  0  0  0
 18 39  1  0  0  0
 18 40  1  0  0  0
 19 23  1  0  0  0
 19 41  1  0  0  0
 19 42  1  0  0  0
 20 21  1  0  0  0
 20 43  1  0  0  0
 20 44  1  0  0  0
 21 22  1  0  0  0
 21 45  1  0  0  0
 21 46  1  0  0  0
 22 47  1  0  0  0
 22 48  1  0  0  0
 22 49  1  0  0  0
 23 25  1  0  0  0
 23 50  1  0  0  0
 23 51  1  0  0  0
 24 25  1  0  0  0
 24 52  1  0  0  0
 24 53  1  0  0  0
 25 54  1  0  0  0
 25 55  1  0  0  0
M  END
> <chembl_id>
CHEMBL361975

> <chembl_pref_name>
None

> <i_m_ct_stereo_status>
1

> <s_m_source_file>
sdf/inactives_sanitized.sdf

> <i_m_source_file_index>
228

> <i_lp_mmshare_version>
49012

> <i_f3d_flags>
0

> <s_epik_input>
czFbY0hdW2NIXW5jMUMoPU8pW0NASF0oW0NIMl1bQ0gyXVtDSDJdW0NIM10pW05IXUMoPU8pT1tDQEBIXShbQ0gzXSlbQ0gyXVtDSF0yW0NIMl1bQ0gyXVtDSDJdW0NIMl1bQ0gyXTI=

> <s_epik_cmdline>
J2VwaWtfcHl0aG9uJywgJy1waHQnLCAnMC41JywgJy1waCcsICc3LjUnLCAnLW50JywgJy1tYScsICcyMDAnLCAnLWltYWUnLCAnPGluZmlsZS5tYWU+JywgJy1vbWFlJywgJzxvdXRmaWxlLm1hZT4n

> <r_lp_tautomer_probability>
1

> <r_epik_Ionization_Penalty>
  0.0000

> <r_epik_Ionization_Penalty_Charging>
  0.0000

> <r_epik_Ionization_Penalty_Neutral>
  0.0000

> <r_epik_State_Penalty>
 -0.0000

> <r_epik_Charging_Adjusted_Penalty>
0

> <i_epik_Tot_Q>
0

> <i_epik_Tot_abs_Q>
0

> <s_epik_Chemistry_Notes>
This compound has an ester and may undergo hydrolysis at high or low pH.

> <s_lp_Force_Field>
OPLS3e

> <r_lp_Energy>
21.96023

> <b_lp_Chiralities_Consistent>
1

> <s_lp_Variant>
sdf/inactives_sanitized.sdf:228-1

$$$$
sdf/inactives_sanitized.sdf:229
                    3D
 Schrodinger Suite 2020-1.
 61 61  0  0  1  0            999 V2000
    2.3953   -0.0972   -0.4791 C   0  0  0  0  0  0
   -0.4288    1.0554    0.0659 C   0  0  0  0  0  0
    1.8821   -0.9998   -1.6859 C   0  0  0  0  0  0
    0.1665   -0.0516    0.6665 N   0  0  0  0  0  0
    1.6314   -0.1709    0.8519 C   0  0  1  0  0  0
   -1.7658    0.8626    0.0420 O   0  0  0  0  0  0
   -2.6565    1.7493   -0.6475 C   0  0  0  0  0  0
    2.4330   -0.6413   -2.8613 N   0  0  0  0  0  0
    3.3864    0.6240   -0.6194 O   0  0  0  0  0  0
    0.1491    2.0462   -0.3871 O   0  0  0  0  0  0
    1.0614   -1.9035   -1.5184 O   0  0  0  0  0  0
    4.5786   -4.1965   -4.7040 N   0  0  0  0  0  0
    2.7180   -2.7119   -4.2459 C   0  0  0  0  0  0
    2.1791   -1.2899   -4.1471 C   0  0  0  0  0  0
   -3.7749    2.1820    0.3476 C   0  0  0  0  0  0
   -3.1442    1.0771   -1.9706 C   0  0  0  0  0  0
    4.0568   -2.9494   -4.5766 C   0  0  0  0  0  0
    2.0199   -1.4640    1.6166 C   0  0  0  0  0  0
    3.7482   -5.2528   -4.5092 C   0  0  0  0  0  0
    1.8780   -3.8169   -4.0642 C   0  0  0  0  0  0
   -1.9757    0.7086   -2.9109 C   0  0  0  0  0  0
   -3.1996    2.9616    1.5474 C   0  0  0  0  0  0
   -4.6654    1.0165    0.8278 C   0  0  0  0  0  0
   -4.1713    1.9372   -2.7360 C   0  0  0  0  0  0
    1.3927   -1.5670    3.0227 C   0  0  0  0  0  0
    1.8430   -2.8241    3.7875 C   0  0  0  0  0  0
    2.3968   -5.1070   -4.1908 C   0  0  0  0  0  0
    1.2177   -2.9293    5.1851 C   0  0  0  0  0  0
   -0.4171   -0.6263    1.2563 H   0  0  0  0  0  0
    1.9298    0.6638    1.4906 H   0  0  0  0  0  0
   -2.1359    2.6657   -0.9330 H   0  0  0  0  0  0
    3.0970    0.1198   -2.8659 H   0  0  0  0  0  0
    2.6470   -0.6840   -4.9242 H   0  0  0  0  0  0
    1.1087   -1.2738   -4.3632 H   0  0  0  0  0  0
   -4.4222    2.8897   -0.1701 H   0  0  0  0  0  0
   -3.6383    0.1395   -1.7124 H   0  0  0  0  0  0
    4.7402   -2.1290   -4.7408 H   0  0  0  0  0  0
    1.7228   -2.3443    1.0436 H   0  0  0  0  0  0
    3.1060   -1.5129    1.7200 H   0  0  0  0  0  0
    4.1856   -6.2348   -4.6156 H   0  0  0  0  0  0
    0.8344   -3.6784   -3.8212 H   0  0  0  0  0  0
   -1.3797    1.5850   -3.1686 H   0  0  0  0  0  0
   -2.3362    0.2682   -3.8414 H   0  0  0  0  0  0
   -1.3082   -0.0249   -2.4581 H   0  0  0  0  0  0
   -2.5637    2.3321    2.1710 H   0  0  0  0  0  0
   -3.9950    3.3541    2.1819 H   0  0  0  0  0  0
   -2.6005    3.8106    1.2164 H   0  0  0  0  0  0
   -4.0846    0.2561    1.3510 H   0  0  0  0  0  0
   -5.1768    0.5313   -0.0032 H   0  0  0  0  0  0
   -5.4378    1.3685    1.5126 H   0  0  0  0  0  0
   -3.7690    2.9238   -2.9694 H   0  0  0  0  0  0
   -5.0903    2.0760   -2.1673 H   0  0  0  0  0  0
   -4.4586    1.4672   -3.6775 H   0  0  0  0  0  0
    1.6556   -0.6808    3.6023 H   0  0  0  0  0  0
    0.3048   -1.5720    2.9413 H   0  0  0  0  0  0
    1.5846   -3.7147    3.2129 H   0  0  0  0  0  0
    2.9299   -2.8264    3.8822 H   0  0  0  0  0  0
    1.7657   -5.9717   -4.0472 H   0  0  0  0  0  0
    1.5604   -3.8282    5.6983 H   0  0  0  0  0  0
    0.1295   -2.9749    5.1295 H   0  0  0  0  0  0
    1.4863   -2.0728    5.8043 H   0  0  0  0  0  0
  1  3  1  0  0  0
  1  5  1  0  0  0
  1  9  2  0  0  0
  2  4  1  0  0  0
  2  6  1  0  0  0
  2 10  2  0  0  0
  3  8  1  0  0  0
  3 11  2  0  0  0
  4  5  1  0  0  0
  4 29  1  0  0  0
  5 18  1  0  0  0
  5 30  1  0  0  0
  6  7  1  0  0  0
  7 15  1  0  0  0
  7 16  1  0  0  0
  7 31  1  0  0  0
  8 14  1  0  0  0
  8 32  1  0  0  0
 12 17  2  0  0  0
 12 19  1  0  0  0
 13 14  1  0  0  0
 13 17  1  0  0  0
 13 20  2  0  0  0
 14 33  1  0  0  0
 14 34  1  0  0  0
 15 22  1  0  0  0
 15 23  1  0  0  0
 15 35  1  0  0  0
 16 21  1  0  0  0
 16 24  1  0  0  0
 16 36  1  0  0  0
 17 37  1  0  0  0
 18 25  1  0  0  0
 18 38  1  0  0  0
 18 39  1  0  0  0
 19 27  2  0  0  0
 19 40  1  0  0  0
 20 27  1  0  0  0
 20 41  1  0  0  0
 21 42  1  0  0  0
 21 43  1  0  0  0
 21 44  1  0  0  0
 22 45  1  0  0  0
 22 46  1  0  0  0
 22 47  1  0  0  0
 23 48  1  0  0  0
 23 49  1  0  0  0
 23 50  1  0  0  0
 24 51  1  0  0  0
 24 52  1  0  0  0
 24 53  1  0  0  0
 25 26  1  0  0  0
 25 54  1  0  0  0
 25 55  1  0  0  0
 26 28  1  0  0  0
 26 56  1  0  0  0
 26 57  1  0  0  0
 27 58  1  0  0  0
 28 59  1  0  0  0
 28 60  1  0  0  0
 28 61  1  0  0  0
M  END
> <chembl_id>
CHEMBL83563

> <chembl_pref_name>
None

> <i_m_ct_stereo_status>
1

> <s_m_source_file>
sdf/inactives_sanitized.sdf

> <i_m_source_file_index>
229

> <i_lp_mmshare_version>
49012

> <i_f3d_flags>
0

> <s_epik_input>
W0NIM11bQ0hdKFtDSDNdKVtDSF0oW0NIXShbQ0gzXSlbQ0gzXSlPQyg9TylbTkhdW0NAQEhdKFtDSDJdW0NIMl1bQ0gyXVtDSDNdKUMoPU8pQyg9TylbTkhdW0NIMl1jMVtjSF1uW2NIXVtjSF1bY0hdMQ==

> <s_epik_cmdline>
J2VwaWtfcHl0aG9uJywgJy1waHQnLCAnMC41JywgJy1waCcsICc3LjUnLCAnLW50JywgJy1tYScsICcyMDAnLCAnLWltYWUnLCAnPGluZmlsZS5tYWU+JywgJy1vbWFlJywgJzxvdXRmaWxlLm1hZT4n

> <r_lp_tautomer_probability>
1

> <r_epik_Ionization_Penalty>
  0.0017

> <r_epik_Ionization_Penalty_Charging>
  0.0000

> <r_epik_Ionization_Penalty_Neutral>
  0.0017

> <r_epik_State_Penalty>
 -0.0000

> <r_epik_Charging_Adjusted_Penalty>
0

> <i_epik_Tot_Q>
0

> <i_epik_Tot_abs_Q>
0

> <s_epik_Chemistry_Notes>
This compound has an ester and may undergo hydrolysis at high or low pH.

> <s_lp_Force_Field>
OPLS3e

> <r_lp_Energy>
30.305136

> <b_lp_Chiralities_Consistent>
1

> <s_lp_Variant>
sdf/inactives_sanitized.sdf:229-1

$$$$
sdf/inactives_sanitized.sdf:230
                    3D
 Schrodinger Suite 2020-1.
 39 41  0  0  1  0            999 V2000
   -2.3172   -0.4192    1.0760 N   0  0  0  0  0  0
   -1.6908   -1.3870    0.3449 C   0  0  0  0  0  0
   -0.4456   -1.2378   -0.1950 N   0  0  0  0  0  0
    0.1791   -0.0522    0.0462 C   0  0  0  0  0  0
   -0.3518    0.9599    0.7795 N   0  0  0  0  0  0
   -1.5972    0.7163    1.2607 C   0  0  0  0  0  0
   -2.3918   -2.5658    0.0673 N   0  0  0  0  0  0
   -1.7100   -3.7598   -0.4775 C   0  0  0  0  0  0
   -2.6555   -4.8065   -1.1009 C   0  0  0  0  0  0
   -3.6835   -5.1441   -0.1850 O   0  0  0  0  0  0
   -4.4778   -4.0145    0.1353 C   0  0  0  0  0  0
   -3.6145   -2.9315    0.8139 C   0  0  0  0  0  0
   -2.2195    1.7706    2.0435 C   0  0  0  0  0  0
   -2.7151    2.6105    2.6671 N   0  0  0  0  0  0
    1.4728    0.1740   -0.4469 N   0  0  0  0  0  0
    2.2891   -0.5492   -1.3344 C   0  0  0  0  0  0
    1.7831   -1.4410   -2.2908 C   0  0  0  0  0  0
    2.6313   -2.1317   -3.1604 C   0  0  0  0  0  0
    4.0154   -1.9105   -3.0703 C   0  0  0  0  0  0
    4.5276   -1.0142   -2.1343 C   0  0  0  0  0  0
    3.6678   -0.3345   -1.2742 C   0  0  0  0  0  0
    2.0256   -2.9905   -4.0594 O   0  0  0  0  0  0
    2.8083   -3.7419   -4.9867 C   0  0  0  0  0  0
    1.9662   -4.4759   -5.7116 F   0  0  0  0  0  0
    3.4752   -2.9479   -5.8266 F   0  0  0  0  0  0
    3.6403   -4.5802   -4.3656 F   0  0  0  0  0  0
   -1.0143   -3.4563   -1.2607 H   0  0  0  0  0  0
   -1.1068   -4.2136    0.3102 H   0  0  0  0  0  0
   -3.0783   -4.4415   -2.0392 H   0  0  0  0  0  0
   -2.0978   -5.7106   -1.3466 H   0  0  0  0  0  0
   -4.9679   -3.6209   -0.7576 H   0  0  0  0  0  0
   -5.2745   -4.3296    0.8093 H   0  0  0  0  0  0
   -3.3357   -3.2437    1.8212 H   0  0  0  0  0  0
   -4.2465   -2.0503    0.9293 H   0  0  0  0  0  0
    1.8708    1.0520   -0.1463 H   0  0  0  0  0  0
    0.7204   -1.6022   -2.3871 H   0  0  0  0  0  0
    4.7108   -2.4190   -3.7201 H   0  0  0  0  0  0
    5.5927   -0.8457   -2.0761 H   0  0  0  0  0  0
    4.0826    0.3574   -0.5550 H   0  0  0  0  0  0
  1  2  2  0  0  0
  1  6  1  0  0  0
  2  3  1  0  0  0
  2  7  1  0  0  0
  3  4  2  0  0  0
  4  5  1  0  0  0
  4 15  1  0  0  0
  5  6  2  0  0  0
  6 13  1  0  0  0
  7  8  1  0  0  0
  7 12  1  0  0  0
  8  9  1  0  0  0
  8 27  1  0  0  0
  8 28  1  0  0  0
  9 10  1  0  0  0
  9 29  1  0  0  0
  9 30  1  0  0  0
 10 11  1  0  0  0
 11 12  1  0  0  0
 11 31  1  0  0  0
 11 32  1  0  0  0
 12 33  1  0  0  0
 12 34  1  0  0  0
 13 14  3  0  0  0
 15 16  1  0  0  0
 15 35  1  0  0  0
 16 17  2  0  0  0
 16 21  1  0  0  0
 17 18  1  0  0  0
 17 36  1  0  0  0
 18 19  2  0  0  0
 18 22  1  0  0  0
 19 20  1  0  0  0
 19 37  1  0  0  0
 20 21  2  0  0  0
 20 38  1  0  0  0
 21 39  1  0  0  0
 22 23  1  0  0  0
 23 24  1  0  0  0
 23 25  1  0  0  0
 23 26  1  0  0  0
M  END
> <chembl_id>
CHEMBL4240103

> <chembl_pref_name>
None

> <s_m_source_file>
sdf/inactives_sanitized.sdf

> <i_m_source_file_index>
230

> <i_lp_mmshare_version>
49012

> <i_m_ct_stereo_status>
1

> <i_f3d_flags>
0

> <s_epik_input>
W0NIMl0xW0NIMl1PW0NIMl1bQ0gyXU4xYzJuYyhDI04pbmMobjIpW05IXWMzW2NIXWMoT0MoRikoRilGKVtjSF1bY0hdW2NIXTM=

> <s_epik_cmdline>
J2VwaWtfcHl0aG9uJywgJy1waHQnLCAnMC41JywgJy1waCcsICc3LjUnLCAnLW50JywgJy1tYScsICcyMDAnLCAnLWltYWUnLCAnPGluZmlsZS5tYWU+JywgJy1vbWFlJywgJzxvdXRmaWxlLm1hZT4n

> <r_lp_tautomer_probability>
1

> <r_epik_Ionization_Penalty>
  0.0002

> <r_epik_Ionization_Penalty_Charging>
  0.0000

> <r_epik_Ionization_Penalty_Neutral>
  0.0002

> <r_epik_State_Penalty>
 -0.0000

> <r_epik_Charging_Adjusted_Penalty>
0

> <i_epik_Tot_Q>
0

> <i_epik_Tot_abs_Q>
0

> <s_lp_Force_Field>
OPLS3e

> <r_lp_Energy>
25.695922

> <b_lp_Chiralities_Consistent>
1

> <s_lp_Variant>
sdf/inactives_sanitized.sdf:230-1

$$$$
sdf/inactives_sanitized.sdf:231
                    3D
 Schrodinger Suite 2020-1.
 30 32  0  0  1  0            999 V2000
   -0.7114    1.1433    0.2135 C   0  0  0  0  0  0
    0.0004   -0.0481   -0.0035 C   0  0  0  0  0  0
   -0.7180   -1.2299   -0.2371 C   0  0  0  0  0  0
   -2.1098   -1.2271   -0.2542 C   0  0  0  0  0  0
   -2.8450   -0.0511   -0.0403 C   0  0  0  0  0  0
   -2.1131    1.1257    0.1925 C   0  0  0  0  0  0
   -4.3513   -0.0517   -0.0603 C   0  0  0  0  0  0
   -4.9759   -1.2448   -0.3078 N   0  0  0  0  0  0
   -6.3407    1.1513    0.1543 C   0  0  0  0  0  0
   -4.9821    1.1385    0.1699 N   0  0  0  0  0  0
   -6.9712    2.4381    0.4046 C   0  0  0  0  0  0
   -7.4724    3.4624    0.6040 N   0  0  0  0  0  0
    0.0378    2.4555    0.4718 C   0  0  0  0  0  0
    0.7967    2.3332    1.5615 F   0  0  0  0  0  0
    0.8252    2.7361   -0.5673 F   0  0  0  0  0  0
   -0.7798    3.4939    0.6572 F   0  0  0  0  0  0
    1.3834    0.0094    0.0257 O   0  0  0  0  0  0
   -7.1776   -2.2238   -0.5334 N   0  5  0  0  0  0
   -8.3485   -1.6331   -0.4310 C   0  0  0  0  0  0
   -8.3755   -0.3435   -0.1735 N   0  0  0  0  0  0
   -7.0555   -0.0324   -0.0930 C   0  0  0  0  0  0
   -6.3125   -1.2017   -0.3173 C   0  0  0  0  0  0
    2.1422   -1.1760   -0.1886 C   0  0  0  0  0  0
   -0.2138   -2.1685   -0.4087 H   0  0  0  0  0  0
   -2.6117   -2.1655   -0.4388 H   0  0  0  0  0  0
   -2.6436    2.0508    0.3614 H   0  0  0  0  0  0
   -9.2642   -2.1927   -0.5552 H   0  0  0  0  0  0
    3.2042   -0.9381   -0.1295 H   0  0  0  0  0  0
    1.9539   -1.5985   -1.1767 H   0  0  0  0  0  0
    1.9305   -1.9301    0.5710 H   0  0  0  0  0  0
  1  6  2  0  0  0
  1 13  1  0  0  0
  1  2  1  0  0  0
  2  3  2  0  0  0
  2 17  1  0  0  0
  3  4  1  0  0  0
  3 24  1  0  0  0
  4  5  2  0  0  0
  4 25  1  0  0  0
  5  6  1  0  0  0
  5  7  1  0  0  0
  6 26  1  0  0  0
  7  8  2  0  0  0
  7 10  1  0  0  0
  8 22  1  0  0  0
  9 11  1  0  0  0
  9 21  1  0  0  0
  9 10  2  0  0  0
 11 12  3  0  0  0
 13 14  1  0  0  0
 13 15  1  0  0  0
 13 16  1  0  0  0
 17 23  1  0  0  0
 18 19  1  0  0  0
 18 22  1  0  0  0
 19 20  2  0  0  0
 19 27  1  0  0  0
 20 21  1  0  0  0
 21 22  2  0  0  0
 23 28  1  0  0  0
 23 29  1  0  0  0
 23 30  1  0  0  0
M  CHG  1  18  -1
M  END
> <chembl_id>
CHEMBL1209530

> <chembl_pref_name>
None

> <s_m_source_file>
sdf/inactives_sanitized.sdf

> <i_m_source_file_index>
231

> <i_lp_mmshare_version>
49012

> <i_m_ct_stereo_status>
1

> <i_f3d_flags>
0

> <s_epik_input>
RkMoRikoRiljMWMoT1tDSDNdKVtjSF1bY0hdYyhbY0hdMSktYyhuYzJDI04pbmMoYzIzKVtuSF1bY0hdbjM=

> <s_epik_cmdline>
J2VwaWtfcHl0aG9uJywgJy1waHQnLCAnMC41JywgJy1waCcsICc3LjUnLCAnLW50JywgJy1tYScsICcyMDAnLCAnLWltYWUnLCAnPGluZmlsZS5tYWU+JywgJy1vbWFlJywgJzxvdXRmaWxlLm1hZT4n

> <r_lp_tautomer_probability>
1

> <r_epik_Ionization_Penalty>
  0.2369

> <r_epik_Ionization_Penalty_Charging>
  0.2259

> <r_epik_Ionization_Penalty_Neutral>
  0.0110

> <r_epik_State_Penalty>
  0.2164

> <r_epik_Charging_Adjusted_Penalty>
0.442284066876782

> <i_epik_Tot_Q>
-1

> <i_epik_Tot_abs_Q>
1

> <s_lp_Force_Field>
OPLS3e

> <r_lp_Energy>
31.165509

> <b_lp_Chiralities_Consistent>
1

> <s_lp_Variant>
sdf/inactives_sanitized.sdf:231-1

$$$$
sdf/inactives_sanitized.sdf:232
                    3D
 Schrodinger Suite 2020-1.
 55 58  0  0  1  0            999 V2000
   -3.6883    1.1920    0.4085 N   0  0  0  0  0  0
   -4.8810    0.5403    0.4714 C   0  0  0  0  0  0
   -5.1131   -0.7913    0.3390 N   0  0  0  0  0  0
   -4.0289   -1.5779    0.1138 C   0  0  0  0  0  0
   -2.6455    0.3758    0.1855 C   0  0  0  0  0  0
   -2.7377   -1.0323    0.0234 C   0  0  0  0  0  0
   -1.4140   -1.5129   -0.2010 C   0  0  0  0  0  0
   -0.5597   -0.4205   -0.1804 C   0  0  0  0  0  0
   -1.3077    0.7258    0.0743 N   0  0  0  0  0  0
   -6.0492    1.3715    0.7085 C   0  0  0  0  0  0
   -6.9798    2.0337    0.8972 N   0  0  0  0  0  0
    0.9416   -0.3724   -0.3982 C   0  0  0  0  0  0
    1.5860   -0.0248    0.8272 O   0  0  0  0  0  0
    2.7340    0.7436    0.8015 C   0  0  0  0  0  0
   -0.7820    2.0901    0.1773 C   0  0  0  0  0  0
   -0.6438    2.7445   -1.2141 C   0  0  0  0  0  0
    0.0912    4.1067   -1.2057 C   0  0  0  0  0  0
   -0.0380    4.8168   -2.5738 C   0  0  0  0  0  0
    0.6205    6.2115   -2.5533 C   0  0  0  0  0  0
    2.1026    6.1323   -2.1279 C   0  0  0  0  0  0
    2.2961    5.3464   -0.8135 C   0  0  0  0  0  0
    1.5978    3.9731   -0.8648 C   0  0  0  0  0  0
    3.0801    1.3854    1.9888 C   0  0  0  0  0  0
    4.1945    2.2172    2.0458 C   0  0  0  0  0  0
    4.9938    2.4178    0.9126 C   0  0  0  0  0  0
    4.6624    1.7437   -0.2731 C   0  0  0  0  0  0
    3.5481    0.9112   -0.3275 C   0  0  0  0  0  0
    6.1896    3.3439    0.9936 C   0  0  0  0  0  0
    6.8048    3.6584   -0.1518 N   0  0  0  0  0  0
    6.5747    3.8054    2.0674 O   0  0  0  0  0  0
   -4.2041   -2.6381    0.0053 H   0  0  0  0  0  0
   -1.1059   -2.5341   -0.3712 H   0  0  0  0  0  0
    1.3205   -1.3465   -0.7099 H   0  0  0  0  0  0
    1.1687    0.3127   -1.2145 H   0  0  0  0  0  0
   -1.4394    2.6846    0.8136 H   0  0  0  0  0  0
    0.1671    2.0512    0.7061 H   0  0  0  0  0  0
   -0.1308    2.0718   -1.9023 H   0  0  0  0  0  0
   -1.6457    2.8777   -1.6261 H   0  0  0  0  0  0
   -0.3711    4.7509   -0.4550 H   0  0  0  0  0  0
    0.3968    4.1982   -3.3608 H   0  0  0  0  0  0
   -1.0903    4.9108   -2.8452 H   0  0  0  0  0  0
    0.5408    6.6758   -3.5370 H   0  0  0  0  0  0
    0.0779    6.8609   -1.8647 H   0  0  0  0  0  0
    2.6766    5.6496   -2.9205 H   0  0  0  0  0  0
    2.5146    7.1367   -2.0254 H   0  0  0  0  0  0
    3.3599    5.2145   -0.6113 H   0  0  0  0  0  0
    1.8969    5.9258    0.0203 H   0  0  0  0  0  0
    1.7350    3.4681    0.0900 H   0  0  0  0  0  0
    2.0879    3.3239   -1.5924 H   0  0  0  0  0  0
    2.4679    1.2559    2.8693 H   0  0  0  0  0  0
    4.4211    2.7113    2.9801 H   0  0  0  0  0  0
    5.2587    1.8534   -1.1673 H   0  0  0  0  0  0
    3.3332    0.4050   -1.2562 H   0  0  0  0  0  0
    7.6016    4.2781   -0.1433 H   0  0  0  0  0  0
    6.4771    3.2806   -1.0283 H   0  0  0  0  0  0
  1  2  2  0  0  0
  1  5  1  0  0  0
  2 10  1  0  0  0
  2  3  1  0  0  0
  3  4  2  0  0  0
  4  6  1  0  0  0
  4 31  1  0  0  0
  5  9  1  0  0  0
  5  6  2  0  0  0
  6  7  1  0  0  0
  7  8  2  0  0  0
  7 32  1  0  0  0
  8  9  1  0  0  0
  8 12  1  0  0  0
  9 15  1  0  0  0
 10 11  3  0  0  0
 12 13  1  0  0  0
 12 33  1  0  0  0
 12 34  1  0  0  0
 13 14  1  0  0  0
 14 23  2  0  0  0
 14 27  1  0  0  0
 15 16  1  0  0  0
 15 35  1  0  0  0
 15 36  1  0  0  0
 16 17  1  0  0  0
 16 37  1  0  0  0
 16 38  1  0  0  0
 17 18  1  0  0  0
 17 22  1  0  0  0
 17 39  1  0  0  0
 18 19  1  0  0  0
 18 40  1  0  0  0
 18 41  1  0  0  0
 19 20  1  0  0  0
 19 42  1  0  0  0
 19 43  1  0  0  0
 20 21  1  0  0  0
 20 44  1  0  0  0
 20 45  1  0  0  0
 21 22  1  0  0  0
 21 46  1  0  0  0
 21 47  1  0  0  0
 22 48  1  0  0  0
 22 49  1  0  0  0
 23 24  1  0  0  0
 23 50  1  0  0  0
 24 25  2  0  0  0
 24 51  1  0  0  0
 25 26  1  0  0  0
 25 28  1  0  0  0
 26 27  2  0  0  0
 26 52  1  0  0  0
 27 53  1  0  0  0
 28 29  1  0  0  0
 28 30  2  0  0  0
 29 54  1  0  0  0
 29 55  1  0  0  0
M  END
> <chembl_id>
CHEMBL481128

> <chembl_pref_name>
None

> <s_m_source_file>
sdf/inactives_sanitized.sdf

> <i_m_source_file_index>
232

> <i_lp_mmshare_version>
49012

> <i_m_ct_stereo_status>
1

> <i_f3d_flags>
0

> <s_epik_input>
W2NIXTFbY0hdYyhDKD1PKVtOSDJdKVtjSF1bY0hdYzFPW0NIMl1jKFtjSF1jKGMyMylbY0hdbmMobjIpQyNOKW4zW0NIMl1bQ0gyXVtDSF00W0NIMl1bQ0gyXVtDSDJdW0NIMl1bQ0gyXTQ=

> <s_epik_cmdline>
J2VwaWtfcHl0aG9uJywgJy1waHQnLCAnMC41JywgJy1waCcsICc3LjUnLCAnLW50JywgJy1tYScsICcyMDAnLCAnLWltYWUnLCAnPGluZmlsZS5tYWU+JywgJy1vbWFlJywgJzxvdXRmaWxlLm1hZT4n

> <r_lp_tautomer_probability>
1

> <r_epik_Ionization_Penalty>
  0.0000

> <r_epik_Ionization_Penalty_Charging>
  0.0000

> <r_epik_Ionization_Penalty_Neutral>
  0.0000

> <r_epik_State_Penalty>
 -0.0000

> <r_epik_Charging_Adjusted_Penalty>
0

> <i_epik_Tot_Q>
0

> <i_epik_Tot_abs_Q>
0

> <s_lp_Force_Field>
OPLS3e

> <r_lp_Energy>
35.718707

> <b_lp_Chiralities_Consistent>
1

> <s_lp_Variant>
sdf/inactives_sanitized.sdf:232-1

$$$$
sdf/inactives_sanitized.sdf:233
                    3D
 Schrodinger Suite 2020-1.
 50 53  0  0  1  0            999 V2000
   -3.7532    1.9691   -0.0523 N   0  0  0  0  0  0
   -5.0368    1.5393   -0.1893 C   0  0  0  0  0  0
   -5.4828    0.2610   -0.2980 N   0  0  0  0  0  0
   -4.5394   -0.7160   -0.2691 C   0  0  0  0  0  0
   -2.8562    0.9701   -0.0265 C   0  0  0  0  0  0
   -3.1753   -0.4094   -0.1335 C   0  0  0  0  0  0
   -1.9442   -1.1260   -0.0726 C   0  0  0  0  0  0
   -0.9218   -0.1989    0.0643 C   0  0  0  0  0  0
   -1.4794    1.0752    0.1070 N   0  0  0  0  0  0
   -6.0552    2.5754   -0.2229 C   0  0  0  0  0  0
   -6.8661    3.4010   -0.2498 N   0  0  0  0  0  0
    0.5738   -0.4349    0.1590 C   0  0  0  0  0  0
    2.9559   -0.4900    1.8450 C   0  0  0  0  0  0
   -0.7391    2.3338    0.2190 C   0  0  0  0  0  0
   -0.3434    2.8624   -1.1761 C   0  0  0  0  0  0
    0.4416    4.1953   -1.1562 C   0  0  0  0  0  0
    0.6293    4.7481   -2.5889 C   0  0  0  0  0  0
    1.3294    6.1225   -2.5792 C   0  0  0  0  0  0
    2.6846    6.0626   -1.8421 C   0  0  0  0  0  0
    2.5648    5.4249   -0.4413 C   0  0  0  0  0  0
    1.8371    4.0658   -0.4947 C   0  0  0  0  0  0
    3.6540   -0.4045    3.0528 C   0  0  0  0  0  0
    5.0461   -0.5092    3.0303 C   0  0  0  0  0  0
    5.7541   -0.6911    1.8865 N   0  0  0  0  0  0
    5.0618   -0.7735    0.7217 C   0  0  0  0  0  0
    3.6702   -0.6791    0.6551 C   0  0  0  0  0  0
    1.1892   -0.3572    1.8666 S   0  0  0  0  0  0
   -4.8840   -1.7356   -0.3578 H   0  0  0  0  0  0
   -1.8038   -2.1957   -0.1263 H   0  0  0  0  0  0
    1.1253    0.2828   -0.4479 H   0  0  0  0  0  0
    0.8287   -1.4182   -0.2373 H   0  0  0  0  0  0
   -1.3576    3.0635    0.7439 H   0  0  0  0  0  0
    0.1306    2.1752    0.8539 H   0  0  0  0  0  0
    0.2421    2.1096   -1.7062 H   0  0  0  0  0  0
   -1.2538    2.9986   -1.7626 H   0  0  0  0  0  0
   -0.1344    4.9312   -0.5911 H   0  0  0  0  0  0
    1.1881    4.0347   -3.1974 H   0  0  0  0  0  0
   -0.3396    4.8341   -3.0831 H   0  0  0  0  0  0
    1.4778    6.4730   -3.6013 H   0  0  0  0  0  0
    0.6837    6.8573   -2.0956 H   0  0  0  0  0  0
    3.3908    5.4833   -2.4387 H   0  0  0  0  0  0
    3.1083    7.0641   -1.7599 H   0  0  0  0  0  0
    3.5561    5.3001   -0.0042 H   0  0  0  0  0  0
    2.0232    6.1016    0.2214 H   0  0  0  0  0  0
    1.7496    3.6659    0.5149 H   0  0  0  0  0  0
    2.4379    3.3292   -1.0311 H   0  0  0  0  0  0
    3.1322   -0.2598    3.9876 H   0  0  0  0  0  0
    5.6169   -0.4466    3.9450 H   0  0  0  0  0  0
    5.6459   -0.9210   -0.1747 H   0  0  0  0  0  0
    3.1784   -0.7562   -0.3019 H   0  0  0  0  0  0
  1  2  2  0  0  0
  1  5  1  0  0  0
  2  3  1  0  0  0
  2 10  1  0  0  0
  3  4  2  0  0  0
  4  6  1  0  0  0
  4 28  1  0  0  0
  5  9  1  0  0  0
  5  6  2  0  0  0
  6  7  1  0  0  0
  7  8  2  0  0  0
  7 29  1  0  0  0
  8  9  1  0  0  0
  8 12  1  0  0  0
  9 14  1  0  0  0
 10 11  3  0  0  0
 12 27  1  0  0  0
 12 30  1  0  0  0
 12 31  1  0  0  0
 13 27  1  0  0  0
 13 22  2  0  0  0
 13 26  1  0  0  0
 14 15  1  0  0  0
 14 32  1  0  0  0
 14 33  1  0  0  0
 15 16  1  0  0  0
 15 34  1  0  0  0
 15 35  1  0  0  0
 16 17  1  0  0  0
 16 21  1  0  0  0
 16 36  1  0  0  0
 17 18  1  0  0  0
 17 37  1  0  0  0
 17 38  1  0  0  0
 18 19  1  0  0  0
 18 39  1  0  0  0
 18 40  1  0  0  0
 19 20  1  0  0  0
 19 41  1  0  0  0
 19 42  1  0  0  0
 20 21  1  0  0  0
 20 43  1  0  0  0
 20 44  1  0  0  0
 21 45  1  0  0  0
 21 46  1  0  0  0
 22 23  1  0  0  0
 22 47  1  0  0  0
 23 24  2  0  0  0
 23 48  1  0  0  0
 24 25  1  0  0  0
 25 26  2  0  0  0
 25 49  1  0  0  0
 26 50  1  0  0  0
M  END
> <chembl_id>
CHEMBL493246

> <chembl_pref_name>
None

> <s_m_source_file>
sdf/inactives_sanitized.sdf

> <i_m_source_file_index>
233

> <i_lp_mmshare_version>
49012

> <i_m_ct_stereo_status>
1

> <i_f3d_flags>
0

> <s_epik_input>
W2NIXTFbY0hdbltjSF1bY0hdYzFTW0NIMl1jKFtjSF1jKGMyMylbY0hdbmMobjIpQyNOKW4zW0NIMl1bQ0gyXVtDSF00W0NIMl1bQ0gyXVtDSDJdW0NIMl1bQ0gyXTQ=

> <s_epik_cmdline>
J2VwaWtfcHl0aG9uJywgJy1waHQnLCAnMC41JywgJy1waCcsICc3LjUnLCAnLW50JywgJy1tYScsICcyMDAnLCAnLWltYWUnLCAnPGluZmlsZS5tYWU+JywgJy1vbWFlJywgJzxvdXRmaWxlLm1hZT4n

> <r_lp_tautomer_probability>
1

> <r_epik_Ionization_Penalty>
  0.0064

> <r_epik_Ionization_Penalty_Charging>
  0.0000

> <r_epik_Ionization_Penalty_Neutral>
  0.0064

> <r_epik_State_Penalty>
 -0.0000

> <r_epik_Charging_Adjusted_Penalty>
0

> <i_epik_Tot_Q>
0

> <i_epik_Tot_abs_Q>
0

> <s_lp_Force_Field>
OPLS3e

> <r_lp_Energy>
35.54947

> <b_lp_Chiralities_Consistent>
1

> <s_lp_Variant>
sdf/inactives_sanitized.sdf:233-1

$$$$
sdf/inactives_sanitized.sdf:234
                    3D
 Schrodinger Suite 2020-1.
 37 37  0  0  1  0            999 V2000
   -1.8733    1.7390   -0.5138 C   0  0  0  0  0  0
   -0.5449    1.4196   -0.2377 N   0  0  0  0  0  0
   -2.7787    0.9472   -0.7879 O   0  0  0  0  0  0
   -2.0145    3.0769   -0.4551 O   0  0  0  0  0  0
   -1.0423   -1.9402    0.6412 O   0  0  0  0  0  0
   -0.6650   -0.7809    0.8018 C   0  0  0  0  0  0
   -3.2713    3.6902   -0.7151 C   0  0  0  0  0  0
   -0.0399    0.0345   -0.3179 C   0  0  2  0  0  0
   -3.1369    5.1967   -0.5872 C   0  0  0  0  0  0
   -2.4402    5.9174   -1.5608 C   0  0  0  0  0  0
   -3.7108    5.8581    0.5011 C   0  0  0  0  0  0
    1.5007   -0.0056   -0.1542 C   0  0  0  0  0  0
    3.7891    0.6664   -1.1070 C   0  0  0  0  0  0
    2.2612    0.7252   -1.2806 C   0  0  0  0  0  0
    4.5468    1.3829   -2.2330 C   0  0  0  0  0  0
   -3.5862    7.2403    0.6165 C   0  0  0  0  0  0
   -2.3154    7.2993   -1.4442 C   0  0  0  0  0  0
   -2.8891    7.9542   -0.3563 C   0  0  0  0  0  0
    0.1342    2.1581   -0.3495 H   0  0  0  0  0  0
   -0.7163   -0.2867    1.7727 H   0  0  0  0  0  0
   -3.6175    3.4452   -1.7207 H   0  0  0  0  0  0
   -4.0255    3.3213   -0.0175 H   0  0  0  0  0  0
   -0.2613   -0.3923   -1.2992 H   0  0  0  0  0  0
   -1.9953    5.4081   -2.4035 H   0  0  0  0  0  0
   -4.2505    5.3055    1.2566 H   0  0  0  0  0  0
    1.7859    0.4392    0.8021 H   0  0  0  0  0  0
    1.8424   -1.0431   -0.1295 H   0  0  0  0  0  0
    4.0664    1.1128   -0.1508 H   0  0  0  0  0  0
    4.1144   -0.3740   -1.0643 H   0  0  0  0  0  0
    1.9494    1.7699   -1.3205 H   0  0  0  0  0  0
    1.9917    0.2852   -2.2420 H   0  0  0  0  0  0
    5.6240    1.3270   -2.0739 H   0  0  0  0  0  0
    4.2749    2.4378   -2.2849 H   0  0  0  0  0  0
    4.3322    0.9332   -3.2031 H   0  0  0  0  0  0
   -4.0275    7.7567    1.4560 H   0  0  0  0  0  0
   -1.7766    7.8607   -2.1932 H   0  0  0  0  0  0
   -2.7922    9.0261   -0.2662 H   0  0  0  0  0  0
  1  2  1  0  0  0
  1  3  2  0  0  0
  1  4  1  0  0  0
  2  8  1  0  0  0
  2 19  1  0  0  0
  4  7  1  0  0  0
  5  6  2  0  0  0
  6  8  1  0  0  0
  6 20  1  0  0  0
  7  9  1  0  0  0
  7 21  1  0  0  0
  7 22  1  0  0  0
  8 12  1  0  0  0
  8 23  1  0  0  0
  9 10  2  0  0  0
  9 11  1  0  0  0
 10 17  1  0  0  0
 10 24  1  0  0  0
 11 16  2  0  0  0
 11 25  1  0  0  0
 12 14  1  0  0  0
 12 26  1  0  0  0
 12 27  1  0  0  0
 13 14  1  0  0  0
 13 15  1  0  0  0
 13 28  1  0  0  0
 13 29  1  0  0  0
 14 30  1  0  0  0
 14 31  1  0  0  0
 15 32  1  0  0  0
 15 33  1  0  0  0
 15 34  1  0  0  0
 16 18  1  0  0  0
 16 35  1  0  0  0
 17 18  2  0  0  0
 17 36  1  0  0  0
 18 37  1  0  0  0
M  END
> <chembl_id>
CHEMBL116932

> <chembl_pref_name>
None

> <i_m_ct_stereo_status>
1

> <s_m_source_file>
sdf/inactives_sanitized.sdf

> <i_m_source_file_index>
234

> <i_lp_mmshare_version>
49012

> <i_f3d_flags>
0

> <s_epik_input>
W0NIM11bQ0gyXVtDSDJdW0NIMl1bQ0BASF0oW0NIXT1PKVtOSF1DKD1PKU9bQ0gyXWMxW2NIXVtjSF1bY0hdW2NIXVtjSF0x

> <s_epik_cmdline>
J2VwaWtfcHl0aG9uJywgJy1waHQnLCAnMC41JywgJy1waCcsICc3LjUnLCAnLW50JywgJy1tYScsICcyMDAnLCAnLWltYWUnLCAnPGluZmlsZS5tYWU+JywgJy1vbWFlJywgJzxvdXRmaWxlLm1hZT4n

> <r_lp_tautomer_probability>
1

> <r_epik_Ionization_Penalty>
  0.0003

> <r_epik_Ionization_Penalty_Charging>
  0.0000

> <r_epik_Ionization_Penalty_Neutral>
  0.0003

> <r_epik_State_Penalty>
 -0.0000

> <r_epik_Charging_Adjusted_Penalty>
0

> <i_epik_Tot_Q>
0

> <i_epik_Tot_abs_Q>
0

> <s_epik_Chemistry_Notes>
This compound has an ester and may undergo hydrolysis at high or low pH.

> <s_lp_Force_Field>
OPLS3e

> <r_lp_Energy>
22.181761

> <b_lp_Chiralities_Consistent>
1

> <s_lp_Variant>
sdf/inactives_sanitized.sdf:234-1

$$$$
sdf/inactives_sanitized.sdf:235
                    3D
 Schrodinger Suite 2020-1.
 32 31  0  0  1  0            999 V2000
   -1.2224   -1.6934   -1.0662 C   0  0  0  0  0  0
    2.3884   -2.6090    0.2131 C   0  0  0  0  0  0
    2.0698   -1.4432    0.0388 C   0  0  0  0  0  0
   -0.6422   -0.4390   -1.2109 N   0  0  0  0  0  0
   -1.7469   -2.0667   -2.2643 O   0  0  0  0  0  0
   -1.2523   -2.3694   -0.0358 O   0  0  0  0  0  0
   -2.3975   -3.3228   -2.5349 C   0  0  0  0  0  0
    0.5316    2.5693   -0.0995 O   0  0  0  0  0  0
   -0.2659    1.6406   -0.2318 C   0  0  0  0  0  0
    0.1122    0.1779   -0.1088 C   0  0  2  0  0  0
    1.6521   -0.0451   -0.1802 C   0  0  0  0  0  0
    2.7452   -4.0196    0.4199 C   0  0  0  0  0  0
   -3.6800   -3.4899   -1.6825 C   0  0  0  0  0  0
   -1.4308   -4.5150   -2.3232 C   0  0  0  0  0  0
   -2.7844   -3.2398   -4.0257 C   0  0  0  0  0  0
   -0.5354   -0.0559   -2.1389 H   0  0  0  0  0  0
   -1.3229    1.8351   -0.4214 H   0  0  0  0  0  0
   -0.2643   -0.1569    0.8611 H   0  0  0  0  0  0
    2.1639    0.5448    0.5820 H   0  0  0  0  0  0
    2.0508    0.2704   -1.1458 H   0  0  0  0  0  0
    2.0645   -4.4692    1.1429 H   0  0  0  0  0  0
    3.7657   -4.0920    0.7956 H   0  0  0  0  0  0
    2.6716   -4.5608   -0.5234 H   0  0  0  0  0  0
   -4.2436   -4.3742   -1.9822 H   0  0  0  0  0  0
   -4.3407   -2.6285   -1.7893 H   0  0  0  0  0  0
   -3.4596   -3.5960   -0.6203 H   0  0  0  0  0  0
   -1.1664   -4.6516   -1.2746 H   0  0  0  0  0  0
   -0.4998   -4.3714   -2.8732 H   0  0  0  0  0  0
   -1.8731   -5.4508   -2.6669 H   0  0  0  0  0  0
   -3.2973   -4.1427   -4.3595 H   0  0  0  0  0  0
   -1.9064   -3.1081   -4.6601 H   0  0  0  0  0  0
   -3.4482   -2.3961   -4.2201 H   0  0  0  0  0  0
  1  4  1  0  0  0
  1  5  1  0  0  0
  1  6  2  0  0  0
  2  3  3  0  0  0
  2 12  1  0  0  0
  3 11  1  0  0  0
  4 10  1  0  0  0
  4 16  1  0  0  0
  5  7  1  0  0  0
  7 13  1  0  0  0
  7 14  1  0  0  0
  7 15  1  0  0  0
  8  9  2  0  0  0
  9 10  1  0  0  0
  9 17  1  0  0  0
 10 11  1  0  0  0
 10 18  1  0  0  0
 11 19  1  0  0  0
 11 20  1  0  0  0
 12 21  1  0  0  0
 12 22  1  0  0  0
 12 23  1  0  0  0
 13 24  1  0  0  0
 13 25  1  0  0  0
 13 26  1  0  0  0
 14 27  1  0  0  0
 14 28  1  0  0  0
 14 29  1  0  0  0
 15 30  1  0  0  0
 15 31  1  0  0  0
 15 32  1  0  0  0
M  END
> <chembl_id>
CHEMBL94695

> <chembl_pref_name>
None

> <i_m_ct_stereo_status>
1

> <s_m_source_file>
sdf/inactives_sanitized.sdf

> <i_m_source_file_index>
235

> <i_lp_mmshare_version>
49012

> <i_f3d_flags>
0

> <s_epik_input>
W0NIM11DKFtDSDNdKShbQ0gzXSlPQyg9TylbTkhdW0NASF0oW0NIXT1PKVtDSDJdQyNDW0NIM10=

> <s_epik_cmdline>
J2VwaWtfcHl0aG9uJywgJy1waHQnLCAnMC41JywgJy1waCcsICc3LjUnLCAnLW50JywgJy1tYScsICcyMDAnLCAnLWltYWUnLCAnPGluZmlsZS5tYWU+JywgJy1vbWFlJywgJzxvdXRmaWxlLm1hZT4n

> <r_lp_tautomer_probability>
0.99990000499975

> <r_epik_Ionization_Penalty>
  0.0565

> <r_epik_Ionization_Penalty_Charging>
  0.0000

> <r_epik_Ionization_Penalty_Neutral>
  0.0565

> <r_epik_State_Penalty>
  0.0487

> <r_epik_Charging_Adjusted_Penalty>
0.0487105220785842

> <i_epik_Tot_Q>
0

> <i_epik_Tot_abs_Q>
0

> <s_epik_Chemistry_Notes>
This compound has an ester and may undergo hydrolysis at high or low pH.

> <s_lp_Force_Field>
OPLS3e

> <r_lp_Energy>
7.771264

> <b_lp_Chiralities_Consistent>
1

> <s_lp_Variant>
sdf/inactives_sanitized.sdf:235-1

$$$$
sdf/inactives_sanitized.sdf:236
                    3D
 Schrodinger Suite 2020-1.
 52 52  0  0  1  0            999 V2000
   -0.3178    1.1885    0.0625 C   0  0  0  0  0  0
    2.5756   -0.6723   -0.9097 C   0  0  0  0  0  0
    2.7953    0.1335   -2.1176 C   0  0  0  0  0  0
    0.4501    0.0638   -0.2086 N   0  0  0  0  0  0
    1.8381   -0.0397    0.2681 C   0  0  1  0  0  0
   -1.5642    0.9813   -0.4139 O   0  0  0  0  0  0
    3.5490   -0.5871   -3.5176 S   0  0  0  0  0  0
   -2.6067    1.9566   -0.2882 C   0  0  0  0  0  0
    0.0564    2.2100    0.6435 O   0  0  0  0  0  0
    2.9950   -1.8306   -0.8434 O   0  0  0  0  0  0
    2.4904    1.4757   -2.3573 C   0  0  0  0  0  0
    3.4362    0.9040   -4.3935 C   0  0  0  0  0  0
    2.8486    1.9065   -3.6386 C   0  0  0  0  0  0
   -3.8538    1.2496    0.3249 C   0  0  0  0  0  0
   -2.8290    2.6634   -1.6618 C   0  0  0  0  0  0
    1.9697   -0.8558    1.5851 C   0  0  0  0  0  0
   -5.0821    2.1765    0.4364 C   0  0  0  0  0  0
   -3.2913    1.7063   -2.7803 C   0  0  0  0  0  0
   -1.5955    3.4718   -2.1124 C   0  0  0  0  0  0
   -3.5400    0.6347    1.7065 C   0  0  0  0  0  0
    1.2805   -0.1973    2.7978 C   0  0  0  0  0  0
    1.5150   -0.9606    4.1123 C   0  0  0  0  0  0
    0.8159   -0.3078    5.3127 C   0  0  0  0  0  0
   -0.0030   -0.7680   -0.5581 H   0  0  0  0  0  0
    2.2768    0.9465    0.4377 H   0  0  0  0  0  0
   -2.3198    2.7292    0.4282 H   0  0  0  0  0  0
    2.0235    2.1278   -1.6336 H   0  0  0  0  0  0
    3.8038    0.9705   -5.4069 H   0  0  0  0  0  0
    2.6867    2.9117   -3.9992 H   0  0  0  0  0  0
   -4.1328    0.4219   -0.3288 H   0  0  0  0  0  0
   -3.6178    3.4030   -1.5253 H   0  0  0  0  0  0
    1.5460   -1.8529    1.4481 H   0  0  0  0  0  0
    3.0273   -0.9937    1.8185 H   0  0  0  0  0  0
   -4.8564    3.0691    1.0213 H   0  0  0  0  0  0
   -5.9180    1.6687    0.9189 H   0  0  0  0  0  0
   -5.4391    2.4977   -0.5420 H   0  0  0  0  0  0
   -2.5503    0.9302   -2.9752 H   0  0  0  0  0  0
   -3.4577    2.2438   -3.7144 H   0  0  0  0  0  0
   -4.2298    1.2138   -2.5269 H   0  0  0  0  0  0
   -0.7539    2.8233   -2.3590 H   0  0  0  0  0  0
   -1.2667    4.1599   -1.3327 H   0  0  0  0  0  0
   -1.8172    4.0679   -2.9984 H   0  0  0  0  0  0
   -3.2249    1.3971    2.4200 H   0  0  0  0  0  0
   -2.7445   -0.1090    1.6475 H   0  0  0  0  0  0
   -4.4121    0.1307    2.1246 H   0  0  0  0  0  0
    1.6407    0.8269    2.9076 H   0  0  0  0  0  0
    0.2067   -0.1305    2.6178 H   0  0  0  0  0  0
    1.1610   -1.9871    4.0081 H   0  0  0  0  0  0
    2.5851   -1.0246    4.3136 H   0  0  0  0  0  0
    1.0015   -0.8732    6.2260 H   0  0  0  0  0  0
   -0.2638   -0.2631    5.1653 H   0  0  0  0  0  0
    1.1740    0.7095    5.4746 H   0  0  0  0  0  0
  1  4  1  0  0  0
  1  6  1  0  0  0
  1  9  2  0  0  0
  2  5  1  0  0  0
  2  3  1  0  0  0
  2 10  2  0  0  0
  3  7  1  0  0  0
  3 11  2  0  0  0
  4  5  1  0  0  0
  4 24  1  0  0  0
  5 16  1  0  0  0
  5 25  1  0  0  0
  6  8  1  0  0  0
  7 12  1  0  0  0
  8 14  1  0  0  0
  8 15  1  0  0  0
  8 26  1  0  0  0
 11 13  1  0  0  0
 11 27  1  0  0  0
 12 13  2  0  0  0
 12 28  1  0  0  0
 13 29  1  0  0  0
 14 17  1  0  0  0
 14 20  1  0  0  0
 14 30  1  0  0  0
 15 18  1  0  0  0
 15 19  1  0  0  0
 15 31  1  0  0  0
 16 21  1  0  0  0
 16 32  1  0  0  0
 16 33  1  0  0  0
 17 34  1  0  0  0
 17 35  1  0  0  0
 17 36  1  0  0  0
 18 37  1  0  0  0
 18 38  1  0  0  0
 18 39  1  0  0  0
 19 40  1  0  0  0
 19 41  1  0  0  0
 19 42  1  0  0  0
 20 43  1  0  0  0
 20 44  1  0  0  0
 20 45  1  0  0  0
 21 22  1  0  0  0
 21 46  1  0  0  0
 21 47  1  0  0  0
 22 23  1  0  0  0
 22 48  1  0  0  0
 22 49  1  0  0  0
 23 50  1  0  0  0
 23 51  1  0  0  0
 23 52  1  0  0  0
M  END
> <chembl_id>
CHEMBL183796

> <chembl_pref_name>
None

> <i_m_ct_stereo_status>
1

> <s_m_source_file>
sdf/inactives_sanitized.sdf

> <i_m_source_file_index>
236

> <i_lp_mmshare_version>
49012

> <i_f3d_flags>
0

> <s_epik_input>
W0NIM11bQ0hdKFtDSDNdKVtDSF0oW0NIXShbQ0gzXSlbQ0gzXSlPQyg9TylbTkhdW0NAQEhdKFtDSDJdW0NIMl1bQ0gyXVtDSDNdKUMoPU8pYzFzW2NIXVtjSF1bY0hdMQ==

> <s_epik_cmdline>
J2VwaWtfcHl0aG9uJywgJy1waHQnLCAnMC41JywgJy1waCcsICc3LjUnLCAnLW50JywgJy1tYScsICcyMDAnLCAnLWltYWUnLCAnPGluZmlsZS5tYWU+JywgJy1vbWFlJywgJzxvdXRmaWxlLm1hZT4n

> <r_lp_tautomer_probability>
1

> <r_epik_Ionization_Penalty>
  0.0000

> <r_epik_Ionization_Penalty_Charging>
  0.0000

> <r_epik_Ionization_Penalty_Neutral>
  0.0000

> <r_epik_State_Penalty>
 -0.0000

> <r_epik_Charging_Adjusted_Penalty>
0

> <i_epik_Tot_Q>
0

> <i_epik_Tot_abs_Q>
0

> <s_epik_Chemistry_Notes>
This compound has an ester and may undergo hydrolysis at high or low pH.

> <s_lp_Force_Field>
OPLS3e

> <r_lp_Energy>
22.16336

> <b_lp_Chiralities_Consistent>
1

> <s_lp_Variant>
sdf/inactives_sanitized.sdf:236-1

$$$$
sdf/inactives_sanitized.sdf:237
                    3D
 Schrodinger Suite 2020-1.
 77 79  0  0  1  0            999 V2000
    0.0090   -0.1195   -0.6920 N   0  0  2  0  0  0
    0.1146    2.0555    0.5255 C   0  0  0  0  0  0
    0.7718   -3.4021    3.8192 C   0  0  0  0  0  0
    1.3796   -2.4003    1.2652 C   0  0  0  0  0  0
   -0.2164    1.3482   -0.8143 C   0  0  2  0  0  0
    0.6167   -2.0350    3.5593 C   0  0  0  0  0  0
    1.2383   -4.2757    2.8303 C   0  0  0  0  0  0
    1.7427   -1.9028   -0.1049 C   0  0  0  0  0  0
    1.4415   -0.4402   -0.4931 C   0  0  0  0  0  0
    1.0640    3.0086    0.4868 N   0  0  0  0  0  0
    0.9175   -1.5467    2.2763 C   0  0  0  0  0  0
    1.5380   -3.7612    1.5597 C   0  0  0  0  0  0
    0.7640    5.0796    1.8963 C   0  0  0  0  0  0
   -0.2976    5.5422    1.2016 C   0  0  0  0  0  0
   -0.4723    1.7362    1.5608 O   0  0  0  0  0  0
    1.5420    3.7894    1.6366 C   0  0  2  0  0  0
    2.2684   -2.6184   -0.9597 O   0  0  0  0  0  0
    0.4869   -3.8897    5.0726 O   0  0  0  0  0  0
    0.1763   -1.2483    4.6087 O   0  0  0  0  0  0
    1.3763   -5.6078    3.1782 O   0  0  0  0  0  0
   -1.0549    6.7870    1.4563 C   0  0  0  0  0  0
   -0.5000   -0.8418   -1.8775 C   0  0  0  0  0  0
    3.0692    4.0293    1.5499 C   0  0  0  0  0  0
   -1.6762    1.7386   -1.1897 C   0  0  0  0  0  0
    3.9499    2.7705    1.3195 C   0  0  0  0  0  0
   -0.8547   -4.3319    5.2298 C   0  0  0  0  0  0
   -0.0550    0.1388    4.3993 C   0  0  0  0  0  0
    1.8458   -6.5401    2.2105 C   0  0  0  0  0  0
   -2.1697    7.0600    0.6554 C   0  0  0  0  0  0
   -0.7012    7.6923    2.4672 C   0  0  0  0  0  0
   -1.9703   -0.5264   -2.2075 C   0  0  0  0  0  0
    3.7486    1.6853    2.3969 C   0  0  0  0  0  0
    5.4364    3.1537    1.2018 C   0  0  0  0  0  0
   -2.1908    0.9737   -2.4122 C   0  0  0  0  0  0
   -2.9200    8.2155    0.8580 C   0  0  0  0  0  0
   -1.4518    8.8474    2.6713 C   0  0  0  0  0  0
   -2.5582    9.1041    1.8664 C   0  0  0  0  0  0
    0.4590    1.7569   -1.5711 H   0  0  0  0  0  0
    1.8877    0.1955    0.2705 H   0  0  0  0  0  0
    1.9904   -0.1982   -1.4051 H   0  0  0  0  0  0
    1.4527    3.2607   -0.4102 H   0  0  0  0  0  0
    0.8020   -0.4954    2.0706 H   0  0  0  0  0  0
    1.9007   -4.4253    0.7891 H   0  0  0  0  0  0
    1.1340    5.6483    2.7355 H   0  0  0  0  0  0
   -0.6501    4.9560    0.3651 H   0  0  0  0  0  0
    1.3874    3.1964    2.5404 H   0  0  0  0  0  0
    0.1261   -0.5962   -2.7375 H   0  0  0  0  0  0
   -0.3994   -1.9176   -1.7302 H   0  0  0  0  0  0
    3.2618    4.7406    0.7444 H   0  0  0  0  0  0
    3.3997    4.5274    2.4634 H   0  0  0  0  0  0
   -2.3540    1.5423   -0.3556 H   0  0  0  0  0  0
   -1.7456    2.8114   -1.3796 H   0  0  0  0  0  0
    3.6663    2.3294    0.3625 H   0  0  0  0  0  0
   -0.9965   -4.7061    6.2436 H   0  0  0  0  0  0
   -1.0942   -5.1432    4.5399 H   0  0  0  0  0  0
   -1.5658   -3.5190    5.0724 H   0  0  0  0  0  0
   -0.3617    0.5976    5.3391 H   0  0  0  0  0  0
   -0.8608    0.2927    3.6815 H   0  0  0  0  0  0
    0.8427    0.6569    4.0583 H   0  0  0  0  0  0
    1.8864   -7.5329    2.6582 H   0  0  0  0  0  0
    2.8519   -6.2906    1.8699 H   0  0  0  0  0  0
    1.1780   -6.5943    1.3493 H   0  0  0  0  0  0
   -2.4624    6.3767   -0.1291 H   0  0  0  0  0  0
    0.1516    7.5172    3.1047 H   0  0  0  0  0  0
   -2.2563   -1.0599   -3.1143 H   0  0  0  0  0  0
   -2.6203   -0.9194   -1.4241 H   0  0  0  0  0  0
    3.9662    2.0676    3.3948 H   0  0  0  0  0  0
    4.3998    0.8284    2.2204 H   0  0  0  0  0  0
    2.7269    1.3056    2.4015 H   0  0  0  0  0  0
    5.8084    3.6000    2.1250 H   0  0  0  0  0  0
    5.5976    3.8729    0.3977 H   0  0  0  0  0  0
    6.0545    2.2818    0.9837 H   0  0  0  0  0  0
   -1.6621    1.3077   -3.3064 H   0  0  0  0  0  0
   -3.2482    1.1855   -2.5767 H   0  0  0  0  0  0
   -3.7792    8.4202    0.2366 H   0  0  0  0  0  0
   -1.1769    9.5415    3.4519 H   0  0  0  0  0  0
   -3.1403    9.9998    2.0258 H   0  0  0  0  0  0
  1  5  1  0  0  0
  1  9  1  0  0  0
  1 22  1  0  0  0
  2  5  1  0  0  0
  2 10  1  0  0  0
  2 15  2  0  0  0
  3  7  2  0  0  0
  3 18  1  0  0  0
  3  6  1  0  0  0
  4  8  1  0  0  0
  4 11  1  0  0  0
  4 12  2  0  0  0
  5 24  1  0  0  0
  5 38  1  0  0  0
  6 11  2  0  0  0
  6 19  1  0  0  0
  7 12  1  0  0  0
  7 20  1  0  0  0
  8  9  1  0  0  0
  8 17  2  0  0  0
  9 39  1  0  0  0
  9 40  1  0  0  0
 10 16  1  0  0  0
 10 41  1  0  0  0
 11 42  1  0  0  0
 12 43  1  0  0  0
 13 16  1  0  0  0
 13 14  2  0  0  0
 13 44  1  0  0  0
 14 21  1  0  0  0
 14 45  1  0  0  0
 16 23  1  0  0  0
 16 46  1  0  0  0
 18 26  1  0  0  0
 19 27  1  0  0  0
 20 28  1  0  0  0
 21 29  2  0  0  0
 21 30  1  0  0  0
 22 31  1  0  0  0
 22 47  1  0  0  0
 22 48  1  0  0  0
 23 25  1  0  0  0
 23 49  1  0  0  0
 23 50  1  0  0  0
 24 34  1  0  0  0
 24 51  1  0  0  0
 24 52  1  0  0  0
 25 32  1  0  0  0
 25 33  1  0  0  0
 25 53  1  0  0  0
 26 54  1  0  0  0
 26 55  1  0  0  0
 26 56  1  0  0  0
 27 57  1  0  0  0
 27 58  1  0  0  0
 27 59  1  0  0  0
 28 60  1  0  0  0
 28 61  1  0  0  0
 28 62  1  0  0  0
 29 35  1  0  0  0
 29 63  1  0  0  0
 30 36  2  0  0  0
 30 64  1  0  0  0
 31 34  1  0  0  0
 31 65  1  0  0  0
 31 66  1  0  0  0
 32 67  1  0  0  0
 32 68  1  0  0  0
 32 69  1  0  0  0
 33 70  1  0  0  0
 33 71  1  0  0  0
 33 72  1  0  0  0
 34 73  1  0  0  0
 34 74  1  0  0  0
 35 37  2  0  0  0
 35 75  1  0  0  0
 36 37  1  0  0  0
 36 76  1  0  0  0
 37 77  1  0  0  0
M  END
> <chembl_id>
CHEMBL100972

> <chembl_pref_name>
None

> <i_m_ct_stereo_status>
1

> <s_m_source_file>
sdf/inactives_sanitized.sdf

> <i_m_source_file_index>
237

> <i_lp_mmshare_version>
49012

> <i_f3d_flags>
0

> <s_epik_input>
W0NIM11PYzFjKE9bQ0gzXSlbY0hdYyhbY0hdYzFPW0NIM10pQyg9TylbQ0gyXU4yW0NAQEhdKFtDSDJdW0NIMl1bQ0gyXVtDSDJdMilDKD1PKVtOSF1bQ0BASF0oW0NIMl1bQ0hdKFtDSDNdKVtDSDNdKS9bQ0hdPVtDSF0vYzNbY0hdW2NIXVtjSF1bY0hdW2NIXTM=

> <s_epik_cmdline>
J2VwaWtfcHl0aG9uJywgJy1waHQnLCAnMC41JywgJy1waCcsICc3LjUnLCAnLW50JywgJy1tYScsICcyMDAnLCAnLWltYWUnLCAnPGluZmlsZS5tYWU+JywgJy1vbWFlJywgJzxvdXRmaWxlLm1hZT4n

> <r_lp_tautomer_probability>
0.99990000499975

> <r_epik_Ionization_Penalty>
  0.0320

> <r_epik_Ionization_Penalty_Charging>
  0.0000

> <r_epik_Ionization_Penalty_Neutral>
  0.0320

> <r_epik_State_Penalty>
  0.0264

> <r_epik_Charging_Adjusted_Penalty>
0.0264400689711553

> <i_epik_Tot_Q>
0

> <i_epik_Tot_abs_Q>
0

> <s_lp_Force_Field>
OPLS3e

> <r_lp_Energy>
46.727866

> <b_lp_Chiralities_Consistent>
1

> <s_lp_Variant>
sdf/inactives_sanitized.sdf:237-1

$$$$
sdf/inactives_sanitized.sdf:238
                    3D
 Schrodinger Suite 2020-1.
 36 35  0  0  1  0            999 V2000
   -1.6204    1.6406   -0.7620 C   0  0  0  0  0  0
   -0.4777    1.2879   -0.0509 N   0  0  0  0  0  0
   -1.8317    2.9751   -0.6048 O   0  0  0  0  0  0
    0.0275   -0.0964   -0.0353 C   0  0  2  0  0  0
   -2.3276    0.8814   -1.4270 O   0  0  0  0  0  0
   -2.9052    3.7265   -1.2025 C   0  0  0  0  0  0
   -0.7886   -1.9374    1.2965 O   0  0  0  0  0  0
   -0.6060   -0.7254    1.1946 C   0  0  0  0  0  0
    1.5916   -0.1213   -0.0104 C   0  0  2  0  0  0
   -4.2880    3.2259   -0.7159 C   0  0  0  0  0  0
   -2.8179    3.6987   -2.7487 C   0  0  0  0  0  0
   -2.6846    5.1701   -0.7062 C   0  0  0  0  0  0
    2.1877    0.5119   -1.2933 C   0  0  0  0  0  0
    2.1973   -1.5262    0.2213 C   0  0  0  0  0  0
    3.6955    0.7959   -1.2155 C   0  0  0  0  0  0
    0.0414    1.9999    0.4418 H   0  0  0  0  0  0
   -0.2936   -0.6382   -0.9289 H   0  0  0  0  0  0
   -0.8799   -0.0420    1.9998 H   0  0  0  0  0  0
    1.9157    0.4972    0.8292 H   0  0  0  0  0  0
   -5.0897    3.8835   -1.0543 H   0  0  0  0  0  0
   -4.3338    3.1878    0.3732 H   0  0  0  0  0  0
   -4.5185    2.2259   -1.0827 H   0  0  0  0  0  0
   -3.0132    2.7066   -3.1553 H   0  0  0  0  0  0
   -1.8277    3.9985   -3.0942 H   0  0  0  0  0  0
   -3.5416    4.3783   -3.2001 H   0  0  0  0  0  0
   -3.4423    5.8498   -1.0983 H   0  0  0  0  0  0
   -1.7102    5.5542   -1.0123 H   0  0  0  0  0  0
   -2.7238    5.2289    0.3826 H   0  0  0  0  0  0
    1.9888   -0.1418   -2.1436 H   0  0  0  0  0  0
    1.6846    1.4513   -1.5224 H   0  0  0  0  0  0
    1.8790   -2.2240   -0.5535 H   0  0  0  0  0  0
    1.9059   -1.9426    1.1851 H   0  0  0  0  0  0
    3.2867   -1.5014    0.2166 H   0  0  0  0  0  0
    3.9706    1.6117   -1.8843 H   0  0  0  0  0  0
    4.2763   -0.0785   -1.5097 H   0  0  0  0  0  0
    4.0021    1.0793   -0.2084 H   0  0  0  0  0  0
  1  2  1  0  0  0
  1  3  1  0  0  0
  1  5  2  0  0  0
  2  4  1  0  0  0
  2 16  1  0  0  0
  3  6  1  0  0  0
  4  8  1  0  0  0
  4  9  1  0  0  0
  4 17  1  0  0  0
  6 10  1  0  0  0
  6 11  1  0  0  0
  6 12  1  0  0  0
  7  8  2  0  0  0
  8 18  1  0  0  0
  9 13  1  0  0  0
  9 14  1  0  0  0
  9 19  1  0  0  0
 10 20  1  0  0  0
 10 21  1  0  0  0
 10 22  1  0  0  0
 11 23  1  0  0  0
 11 24  1  0  0  0
 11 25  1  0  0  0
 12 26  1  0  0  0
 12 27  1  0  0  0
 12 28  1  0  0  0
 13 15  1  0  0  0
 13 29  1  0  0  0
 13 30  1  0  0  0
 14 31  1  0  0  0
 14 32  1  0  0  0
 14 33  1  0  0  0
 15 34  1  0  0  0
 15 35  1  0  0  0
 15 36  1  0  0  0
M  END
> <chembl_id>
CHEMBL330046

> <chembl_pref_name>
None

> <i_m_ct_stereo_status>
1

> <s_m_source_file>
sdf/inactives_sanitized.sdf

> <i_m_source_file_index>
238

> <i_lp_mmshare_version>
49012

> <i_f3d_flags>
0

> <s_epik_input>
W0NIM11DKFtDSDNdKShbQ0gzXSlPQyg9TylbTkhdW0NASF0oW0NIXT1PKVtDQEBIXShbQ0gzXSlbQ0gyXVtDSDNd

> <s_epik_cmdline>
J2VwaWtfcHl0aG9uJywgJy1waHQnLCAnMC41JywgJy1waCcsICc3LjUnLCAnLW50JywgJy1tYScsICcyMDAnLCAnLWltYWUnLCAnPGluZmlsZS5tYWU+JywgJy1vbWFlJywgJzxvdXRmaWxlLm1hZT4n

> <r_lp_tautomer_probability>
1

> <r_epik_Ionization_Penalty>
  0.0002

> <r_epik_Ionization_Penalty_Charging>
  0.0000

> <r_epik_Ionization_Penalty_Neutral>
  0.0002

> <r_epik_State_Penalty>
 -0.0000

> <r_epik_Charging_Adjusted_Penalty>
0

> <i_epik_Tot_Q>
0

> <i_epik_Tot_abs_Q>
0

> <s_epik_Chemistry_Notes>
This compound has an ester and may undergo hydrolysis at high or low pH.

> <s_lp_Force_Field>
OPLS3e

> <r_lp_Energy>
9.506132

> <b_lp_Chiralities_Consistent>
1

> <s_lp_Variant>
sdf/inactives_sanitized.sdf:238-1

$$$$
sdf/inactives_sanitized.sdf:239
                    3D
 Schrodinger Suite 2020-1.
 71 72  0  0  1  0            999 V2000
    4.0352    1.8919   -0.3009 N   0  0  0  0  0  0
    3.0815    1.9329   -1.2019 C   0  0  0  0  0  0
    5.1272    2.5702   -0.6334 C   0  0  0  0  0  0
    1.7687    1.2874   -1.1110 C   0  0  0  0  0  0
    3.4875    2.8753   -2.6044 S   0  0  0  0  0  0
   -0.8707    1.1542    0.6744 C   0  0  0  0  0  0
    5.0318    3.1948   -1.8792 C   0  0  0  0  0  0
    0.0226    0.2260    0.2795 N   0  0  0  0  0  0
    6.2814    2.6144    0.2741 C   0  0  0  0  0  0
   -3.0942    1.1267    3.0088 C   0  0  0  0  0  0
    1.4761    0.4250    0.1274 C   0  0  1  0  0  0
   -2.3533    0.7096    0.6602 C   0  0  1  0  0  0
   -3.1831    1.4167    1.6520 N   0  0  0  0  0  0
    0.9345    1.4314   -2.0104 O   0  0  0  0  0  0
   -0.5683    2.3048    0.9972 O   0  0  0  0  0  0
   -2.3754    0.2691    3.5287 O   0  0  0  0  0  0
    7.3091    3.2432    0.0101 O   0  0  0  0  0  0
   -3.9323    1.9392    3.6799 O   0  0  0  0  0  0
   -2.9617    0.9213   -0.7535 C   0  0  0  0  0  0
    6.0855    1.8945    1.4117 O   0  0  0  0  0  0
   -4.0387    1.8703    5.0986 C   0  0  0  0  0  0
   -5.1209    2.8152    5.6021 C   0  0  0  0  0  0
    2.2172   -0.9333    0.0112 C   0  0  0  0  0  0
   -4.3962    0.3719   -0.9489 C   0  0  0  0  0  0
    7.0905    1.8252    2.4141 C   0  0  0  0  0  0
   -6.0010    2.3801    6.5961 C   0  0  0  0  0  0
   -5.2287    4.1140    5.0931 C   0  0  0  0  0  0
    2.0736   -1.8272    1.2600 C   0  0  0  0  0  0
    2.8591   -3.1451    1.1431 C   0  0  0  0  0  0
   -4.4848   -1.1501   -0.7053 C   0  0  0  0  0  0
   -4.9594    0.7757   -2.3287 C   0  0  0  0  0  0
    6.6010    0.9347    3.5602 C   0  0  0  0  0  0
    2.7253   -4.0338    2.3870 C   0  0  0  0  0  0
   -6.9926    3.2346    7.0716 C   0  0  0  0  0  0
   -6.2208    4.9678    5.5684 C   0  0  0  0  0  0
   -7.0988    4.5239    6.5547 C   0  0  0  0  0  0
    5.7672    3.8042   -2.3843 H   0  0  0  0  0  0
   -0.3157   -0.6885    0.0173 H   0  0  0  0  0  0
    1.8439    0.9258    1.0261 H   0  0  0  0  0  0
   -2.3833   -0.3596    0.8831 H   0  0  0  0  0  0
   -3.7372    2.2038    1.3478 H   0  0  0  0  0  0
   -2.9560    1.9888   -0.9854 H   0  0  0  0  0  0
   -2.3188    0.4582   -1.5053 H   0  0  0  0  0  0
   -4.2779    0.8478    5.3968 H   0  0  0  0  0  0
   -3.0876    2.1374    5.5619 H   0  0  0  0  0  0
    1.8443   -1.4818   -0.8565 H   0  0  0  0  0  0
    3.2817   -0.7674   -0.1637 H   0  0  0  0  0  0
   -5.0373    0.8528   -0.2091 H   0  0  0  0  0  0
    8.0114    1.4183    1.9936 H   0  0  0  0  0  0
    7.3123    2.8258    2.7884 H   0  0  0  0  0  0
   -5.9204    1.3813    7.0002 H   0  0  0  0  0  0
   -4.5473    4.4627    4.3308 H   0  0  0  0  0  0
    2.4209   -1.2791    2.1373 H   0  0  0  0  0  0
    1.0209   -2.0543    1.4339 H   0  0  0  0  0  0
    2.5154   -3.7003    0.2692 H   0  0  0  0  0  0
    3.9147   -2.9293    0.9718 H   0  0  0  0  0  0
   -5.1196   -1.6572   -1.4318 H   0  0  0  0  0  0
   -4.9051   -1.3559    0.2797 H   0  0  0  0  0  0
   -3.5061   -1.6284   -0.7485 H   0  0  0  0  0  0
   -5.1294   -0.0804   -2.9815 H   0  0  0  0  0  0
   -4.2883    1.4485   -2.8640 H   0  0  0  0  0  0
   -5.9122    1.2947   -2.2204 H   0  0  0  0  0  0
    7.3527    0.8682    4.3468 H   0  0  0  0  0  0
    6.3935   -0.0775    3.2120 H   0  0  0  0  0  0
    5.6877    1.3307    4.0052 H   0  0  0  0  0  0
    3.2940   -4.9564    2.2685 H   0  0  0  0  0  0
    1.6855   -4.3072    2.5686 H   0  0  0  0  0  0
    3.0991   -3.5270    3.2772 H   0  0  0  0  0  0
   -7.6755    2.8992    7.8381 H   0  0  0  0  0  0
   -6.3086    5.9699    5.1750 H   0  0  0  0  0  0
   -7.8682    5.1865    6.9231 H   0  0  0  0  0  0
  1  2  2  0  0  0
  1  3  1  0  0  0
  2  4  1  0  0  0
  2  5  1  0  0  0
  3  7  2  0  0  0
  3  9  1  0  0  0
  4 11  1  0  0  0
  4 14  2  0  0  0
  5  7  1  0  0  0
  6  8  1  0  0  0
  6 12  1  0  0  0
  6 15  2  0  0  0
  7 37  1  0  0  0
  8 11  1  0  0  0
  8 38  1  0  0  0
  9 17  2  0  0  0
  9 20  1  0  0  0
 10 13  1  0  0  0
 10 16  2  0  0  0
 10 18  1  0  0  0
 11 23  1  0  0  0
 11 39  1  0  0  0
 12 13  1  0  0  0
 12 19  1  0  0  0
 12 40  1  0  0  0
 13 41  1  0  0  0
 18 21  1  0  0  0
 19 24  1  0  0  0
 19 42  1  0  0  0
 19 43  1  0  0  0
 20 25  1  0  0  0
 21 22  1  0  0  0
 21 44  1  0  0  0
 21 45  1  0  0  0
 22 26  2  0  0  0
 22 27  1  0  0  0
 23 28  1  0  0  0
 23 46  1  0  0  0
 23 47  1  0  0  0
 24 30  1  0  0  0
 24 31  1  0  0  0
 24 48  1  0  0  0
 25 32  1  0  0  0
 25 49  1  0  0  0
 25 50  1  0  0  0
 26 34  1  0  0  0
 26 51  1  0  0  0
 27 35  2  0  0  0
 27 52  1  0  0  0
 28 29  1  0  0  0
 28 53  1  0  0  0
 28 54  1  0  0  0
 29 33  1  0  0  0
 29 55  1  0  0  0
 29 56  1  0  0  0
 30 57  1  0  0  0
 30 58  1  0  0  0
 30 59  1  0  0  0
 31 60  1  0  0  0
 31 61  1  0  0  0
 31 62  1  0  0  0
 32 63  1  0  0  0
 32 64  1  0  0  0
 32 65  1  0  0  0
 33 66  1  0  0  0
 33 67  1  0  0  0
 33 68  1  0  0  0
 34 36  2  0  0  0
 34 69  1  0  0  0
 35 36  1  0  0  0
 35 70  1  0  0  0
 36 71  1  0  0  0
M  END
> <chembl_id>
CHEMBL434132

> <chembl_pref_name>
None

> <i_m_ct_stereo_status>
1

> <s_m_source_file>
sdf/inactives_sanitized.sdf

> <i_m_source_file_index>
239

> <i_lp_mmshare_version>
49012

> <i_f3d_flags>
0

> <s_epik_input>
W0NIM11bQ0gyXU9DKD1PKWMoW2NIXXMxKW5jMUMoPU8pW0NASF0oW0NIMl1bQ0gyXVtDSDJdW0NIM10pW05IXUMoPU8pW0NASF0oW0NIMl1bQ0hdKFtDSDNdKVtDSDNdKVtOSF1DKD1PKU9bQ0gyXWMyW2NIXVtjSF1bY0hdW2NIXVtjSF0y

> <s_epik_cmdline>
J2VwaWtfcHl0aG9uJywgJy1waHQnLCAnMC41JywgJy1waCcsICc3LjUnLCAnLW50JywgJy1tYScsICcyMDAnLCAnLWltYWUnLCAnPGluZmlsZS5tYWU+JywgJy1vbWFlJywgJzxvdXRmaWxlLm1hZT4n

> <r_lp_tautomer_probability>
1

> <r_epik_Ionization_Penalty>
  0.0000

> <r_epik_Ionization_Penalty_Charging>
  0.0000

> <r_epik_Ionization_Penalty_Neutral>
  0.0000

> <r_epik_State_Penalty>
 -0.0000

> <r_epik_Charging_Adjusted_Penalty>
0

> <i_epik_Tot_Q>
0

> <i_epik_Tot_abs_Q>
0

> <s_epik_Chemistry_Notes>
This compound has an ester and may undergo hydrolysis at high or low pH.

> <s_lp_Force_Field>
OPLS3e

> <r_lp_Energy>
36.076199

> <b_lp_Chiralities_Consistent>
1

> <s_lp_Variant>
sdf/inactives_sanitized.sdf:239-1

$$$$
sdf/inactives_sanitized.sdf:240
                    3D
 Schrodinger Suite 2020-1.
 34 33  0  0  1  0            999 V2000
   -1.1966   -1.5912   -1.0196 C   0  0  0  0  0  0
   -0.7023   -0.3018   -1.1718 N   0  0  0  0  0  0
   -1.6790   -2.0131   -2.2194 O   0  0  0  0  0  0
   -1.1932   -2.2561    0.0182 O   0  0  0  0  0  0
   -2.2400   -3.3133   -2.4820 C   0  0  0  0  0  0
   -0.6285    2.5927    0.5734 O   0  0  0  0  0  0
   -0.0008    0.3601   -0.0646 C   0  0  2  0  0  0
   -0.2678    1.8240   -0.3165 C   0  0  0  0  0  0
    1.7486   -1.2915    0.0661 O   0  0  0  0  0  0
    1.5260    0.1065   -0.0659 C   0  0  0  0  0  0
   -3.5141   -3.5622   -1.6373 C   0  0  0  0  0  0
   -1.1954   -4.4339   -2.2529 C   0  0  0  0  0  0
   -2.6219   -3.2702   -3.9758 C   0  0  0  0  0  0
    3.1194   -1.6599    0.0747 C   0  0  0  0  0  0
    3.2145   -3.1842    0.1853 C   0  0  0  0  0  0
   -0.5724    0.0579   -2.1061 H   0  0  0  0  0  0
   -0.4118    0.0864    0.9107 H   0  0  0  0  0  0
   -0.0828    2.1726   -1.3337 H   0  0  0  0  0  0
    1.9976    0.6373    0.7645 H   0  0  0  0  0  0
    1.9780    0.4607   -0.9960 H   0  0  0  0  0  0
   -4.0142   -4.4844   -1.9355 H   0  0  0  0  0  0
   -4.2309   -2.7484   -1.7542 H   0  0  0  0  0  0
   -3.2950   -3.6471   -0.5731 H   0  0  0  0  0  0
   -0.9226   -4.5356   -1.2026 H   0  0  0  0  0  0
   -0.2762   -4.2361   -2.8058 H   0  0  0  0  0  0
   -1.5731   -5.4029   -2.5810 H   0  0  0  0  0  0
   -3.0662   -4.2106   -4.3045 H   0  0  0  0  0  0
   -1.7516   -3.0807   -4.6058 H   0  0  0  0  0  0
   -3.3432   -2.4776   -4.1810 H   0  0  0  0  0  0
    3.6101   -1.3266   -0.8415 H   0  0  0  0  0  0
    3.6321   -1.1934    0.9178 H   0  0  0  0  0  0
    4.2545   -3.5109    0.1949 H   0  0  0  0  0  0
    2.7200   -3.6706   -0.6561 H   0  0  0  0  0  0
    2.7434   -3.5412    1.1014 H   0  0  0  0  0  0
  1  2  1  0  0  0
  1  3  1  0  0  0
  1  4  2  0  0  0
  2  7  1  0  0  0
  2 16  1  0  0  0
  3  5  1  0  0  0
  5 11  1  0  0  0
  5 12  1  0  0  0
  5 13  1  0  0  0
  6  8  2  0  0  0
  7  8  1  0  0  0
  7 10  1  0  0  0
  7 17  1  0  0  0
  8 18  1  0  0  0
  9 10  1  0  0  0
  9 14  1  0  0  0
 10 19  1  0  0  0
 10 20  1  0  0  0
 11 21  1  0  0  0
 11 22  1  0  0  0
 11 23  1  0  0  0
 12 24  1  0  0  0
 12 25  1  0  0  0
 12 26  1  0  0  0
 13 27  1  0  0  0
 13 28  1  0  0  0
 13 29  1  0  0  0
 14 15  1  0  0  0
 14 30  1  0  0  0
 14 31  1  0  0  0
 15 32  1  0  0  0
 15 33  1  0  0  0
 15 34  1  0  0  0
M  END
> <chembl_id>
CHEMBL94253

> <chembl_pref_name>
None

> <i_m_ct_stereo_status>
1

> <s_m_source_file>
sdf/inactives_sanitized.sdf

> <i_m_source_file_index>
240

> <i_lp_mmshare_version>
49012

> <i_f3d_flags>
0

> <s_epik_input>
W0NIM11DKFtDSDNdKShbQ0gzXSlPQyg9TylbTkhdW0NASF0oW0NIXT1PKVtDSDJdT1tDSDJdW0NIM10=

> <s_epik_cmdline>
J2VwaWtfcHl0aG9uJywgJy1waHQnLCAnMC41JywgJy1waCcsICc3LjUnLCAnLW50JywgJy1tYScsICcyMDAnLCAnLWltYWUnLCAnPGluZmlsZS5tYWU+JywgJy1vbWFlJywgJzxvdXRmaWxlLm1hZT4n

> <r_lp_tautomer_probability>
1

> <r_epik_Ionization_Penalty>
  0.0088

> <r_epik_Ionization_Penalty_Charging>
  0.0000

> <r_epik_Ionization_Penalty_Neutral>
  0.0088

> <r_epik_State_Penalty>
 -0.0000

> <r_epik_Charging_Adjusted_Penalty>
0

> <i_epik_Tot_Q>
0

> <i_epik_Tot_abs_Q>
0

> <s_epik_Chemistry_Notes>
This compound has an ester and may undergo hydrolysis at high or low pH.

> <s_lp_Force_Field>
OPLS3e

> <r_lp_Energy>
11.487462

> <b_lp_Chiralities_Consistent>
1

> <s_lp_Variant>
sdf/inactives_sanitized.sdf:240-1

$$$$
sdf/inactives_sanitized.sdf:241
                    3D
 Schrodinger Suite 2020-1.
 24 26  0  0  1  0            999 V2000
   -2.9692    2.0820    0.8670 N   0  0  0  0  0  0
   -1.8552    0.0511    1.5740 C   0  0  0  0  0  0
   -1.8932    1.2601    0.9038 C   0  0  0  0  0  0
   -0.0643    0.1241    0.1555 N   0  0  1  0  0  0
    1.1614   -0.1115   -0.3455 C   0  0  0  0  0  0
    2.2254   -0.3453   -0.7357 N   0  0  0  0  0  0
   -2.9761   -0.3672    2.2862 C   0  0  0  0  0  0
   -0.4986   -0.5729    1.3594 C   0  0  0  0  0  0
   -4.0822    1.6910    1.5534 C   0  0  0  0  0  0
   -0.5653    1.4895    0.2287 C   0  0  0  0  0  0
   -4.1300    0.4616    2.2878 C   0  0  0  0  0  0
   -5.2231    2.5298    1.5382 C   0  0  0  0  0  0
   -5.3152    0.1171    2.9824 C   0  0  0  0  0  0
   -6.3729    2.1604    2.2325 C   0  0  0  0  0  0
   -6.4181    0.9673    2.9477 C   0  0  0  0  0  0
   -2.9870   -1.3016    2.8286 H   0  0  0  0  0  0
    0.1856   -0.3919    2.1898 H   0  0  0  0  0  0
   -0.5534   -1.6479    1.1840 H   0  0  0  0  0  0
    0.1009    2.1249    0.8141 H   0  0  0  0  0  0
   -0.6685    1.9195   -0.7682 H   0  0  0  0  0  0
   -5.1975    3.4583    0.9855 H   0  0  0  0  0  0
   -5.3584   -0.8083    3.5387 H   0  0  0  0  0  0
   -7.2385    2.8063    2.2161 H   0  0  0  0  0  0
   -7.3182    0.6980    3.4806 H   0  0  0  0  0  0
  1  3  2  0  0  0
  1  9  1  0  0  0
  2  3  1  0  0  0
  2  8  1  0  0  0
  2  7  2  0  0  0
  3 10  1  0  0  0
  4 10  1  0  0  0
  4  5  1  0  0  0
  4  8  1  0  0  0
  5  6  3  0  0  0
  7 11  1  0  0  0
  7 16  1  0  0  0
  8 17  1  0  0  0
  8 18  1  0  0  0
  9 11  2  0  0  0
  9 12  1  0  0  0
 10 19  1  0  0  0
 10 20  1  0  0  0
 11 13  1  0  0  0
 12 14  2  0  0  0
 12 21  1  0  0  0
 13 15  2  0  0  0
 13 22  1  0  0  0
 14 15  1  0  0  0
 14 23  1  0  0  0
 15 24  1  0  0  0
M  END
> <chembl_id>
CHEMBL8517

> <chembl_pref_name>
None

> <s_m_source_file>
sdf/inactives_sanitized.sdf

> <i_m_source_file_index>
241

> <i_lp_mmshare_version>
49012

> <i_m_ct_stereo_status>
1

> <i_f3d_flags>
0

> <s_epik_input>
TiNDTihbQ0gyXTEpW0NIMl1jKGMxMiluYzNjKFtjSF0yKVtjSF1bY0hdW2NIXVtjSF0z

> <s_epik_cmdline>
J2VwaWtfcHl0aG9uJywgJy1waHQnLCAnMC41JywgJy1waCcsICc3LjUnLCAnLW50JywgJy1tYScsICcyMDAnLCAnLWltYWUnLCAnPGluZmlsZS5tYWU+JywgJy1vbWFlJywgJzxvdXRmaWxlLm1hZT4n

> <r_epik_Ionization_Penalty>
  0.0242

> <r_epik_Ionization_Penalty_Charging>
  0.0000

> <r_epik_Ionization_Penalty_Neutral>
  0.0242

> <r_epik_State_Penalty>
  0.0196

> <r_epik_Charging_Adjusted_Penalty>
0.019631603112936

> <i_epik_Tot_Q>
0

> <i_epik_Tot_abs_Q>
0

> <s_lp_Force_Field>
OPLS3e

> <r_lp_Energy>
25.783646

> <b_lp_Chiralities_Consistent>
1

> <s_lp_Variant>
sdf/inactives_sanitized.sdf:241-1

$$$$
sdf/inactives_sanitized.sdf:242
                    3D
 Schrodinger Suite 2020-1.
 65 69  0  0  1  0            999 V2000
   -1.8152    1.6170   -0.0370 C   0  0  0  0  0  0
   -0.4143    1.5808    0.0688 C   0  0  0  0  0  0
    0.2912    2.7918    0.1503 C   0  0  0  0  0  0
   -0.3809    4.0111    0.1212 C   0  0  0  0  0  0
   -1.7749    4.0661    0.0135 C   0  0  0  0  0  0
   -2.4746    2.8535   -0.0633 C   0  0  0  0  0  0
   -2.4883    5.3793   -0.0183 C   0  0  0  0  0  0
   -1.9245    6.5020   -0.6466 C   0  0  0  0  0  0
   -4.4378    6.5464    0.6039 C   0  0  0  0  0  0
   -3.7102    5.4019    0.5853 N   0  0  0  0  0  0
   -3.9612    7.7248    0.0055 C   0  0  0  0  0  0
   -2.6889    7.6748   -0.6202 C   0  0  0  0  0  0
   -2.4989    8.9520   -1.1087 N   0  0  0  0  0  0
   -3.6233    9.6670   -0.7596 C   0  0  0  0  0  0
   -4.5149    8.9764   -0.0975 N   0  0  0  0  0  0
   -2.6189    0.3143   -0.1224 C   0  0  0  0  0  0
   -3.9337    0.5219   -0.2176 F   0  0  0  0  0  0
   -2.2352   -0.3828   -1.1927 F   0  0  0  0  0  0
   -2.3985   -0.4221    0.9675 F   0  0  0  0  0  0
    0.1964    0.3389    0.0861 O   0  0  0  0  0  0
    1.6130    0.2419    0.1957 C   0  0  0  0  0  0
    1.9974   -1.2442    0.0945 C   0  0  0  0  0  0
   -5.7244    6.4549    1.2779 C   0  0  0  0  0  0
   -6.7477    6.3826    1.8135 N   0  0  0  0  0  0
   -1.3488    9.4488   -1.8436 C   0  0  0  0  0  0
    3.5189   -1.5228    0.1400 C   0  0  2  0  0  0
    3.8239   -2.9906   -0.2260 C   0  0  0  0  0  0
    5.3397   -3.2506   -0.2882 C   0  0  0  0  0  0
    5.9548   -2.9184    1.0937 N   0  3  2  0  0  0
    5.6633   -1.4536    1.5124 C   0  0  0  0  0  0
    4.1390   -1.2380    1.5262 C   0  0  0  0  0  0
    7.4778   -3.2086    1.0850 C   0  0  0  0  0  0
    8.0365   -3.3136    2.4950 C   0  0  0  0  0  0
    7.3980   -3.3978    3.6334 N   0  0  0  0  0  0
    8.3901   -3.4821    4.4967 C   0  0  0  0  0  0
    9.6075   -3.4747    3.9996 N   0  0  0  0  0  0
    9.3845   -3.3585    2.6294 O   0  0  0  0  0  0
    8.1419   -3.6175    5.9827 C   0  0  0  0  0  0
    1.3666    2.8102    0.2383 H   0  0  0  0  0  0
    0.1970    4.9209    0.1935 H   0  0  0  0  0  0
   -3.5513    2.8782   -0.1507 H   0  0  0  0  0  0
   -0.9599    6.4643   -1.1312 H   0  0  0  0  0  0
   -3.7064   10.7082   -1.0365 H   0  0  0  0  0  0
    2.0959    0.7995   -0.6088 H   0  0  0  0  0  0
    1.9346    0.6630    1.1491 H   0  0  0  0  0  0
    1.4937   -1.8054    0.8835 H   0  0  0  0  0  0
    1.5951   -1.6265   -0.8454 H   0  0  0  0  0  0
   -1.4852   10.5012   -2.0960 H   0  0  0  0  0  0
   -1.2309    8.8703   -2.7603 H   0  0  0  0  0  0
   -0.4540    9.3373   -1.2304 H   0  0  0  0  0  0
    4.0129   -0.8868   -0.5977 H   0  0  0  0  0  0
    3.3393   -3.6710    0.4766 H   0  0  0  0  0  0
    3.3775   -3.2297   -1.1924 H   0  0  0  0  0  0
    5.5548   -4.3007   -0.4913 H   0  0  0  0  0  0
    5.8433   -2.6251   -1.0277 H   0  0  0  0  0  0
    6.0962   -1.2972    2.5003 H   0  0  0  0  0  0
    6.1666   -0.8050    0.7932 H   0  0  0  0  0  0
    3.9253   -0.2148    1.8340 H   0  0  0  0  0  0
    3.6675   -1.8581    2.2906 H   0  0  0  0  0  0
    7.5992   -4.1523    0.5516 H   0  0  0  0  0  0
    7.9289   -2.4125    0.4904 H   0  0  0  0  0  0
    8.7695   -4.4089    6.3945 H   0  0  0  0  0  0
    7.1199   -3.9073    6.2307 H   0  0  0  0  0  0
    8.4330   -2.7240    6.5355 H   0  0  0  0  0  0
    5.5173   -3.5308    1.7685 H   0  0  0  0  0  0
  1  6  2  0  0  0
  1  2  1  0  0  0
  1 16  1  0  0  0
  2 20  1  0  0  0
  2  3  2  0  0  0
  3  4  1  0  0  0
  3 39  1  0  0  0
  4  5  2  0  0  0
  4 40  1  0  0  0
  5  7  1  0  0  0
  5  6  1  0  0  0
  6 41  1  0  0  0
  7 10  1  0  0  0
  7  8  2  0  0  0
  8 12  1  0  0  0
  8 42  1  0  0  0
  9 11  1  0  0  0
  9 10  2  0  0  0
  9 23  1  0  0  0
 11 12  2  0  0  0
 11 15  1  0  0  0
 12 13  1  0  0  0
 13 25  1  0  0  0
 13 14  1  0  0  0
 14 15  2  0  0  0
 14 43  1  0  0  0
 16 18  1  0  0  0
 16 19  1  0  0  0
 16 17  1  0  0  0
 20 21  1  0  0  0
 21 22  1  0  0  0
 21 44  1  0  0  0
 21 45  1  0  0  0
 22 26  1  0  0  0
 22 46  1  0  0  0
 22 47  1  0  0  0
 23 24  3  0  0  0
 25 48  1  0  0  0
 25 49  1  0  0  0
 25 50  1  0  0  0
 26 27  1  0  0  0
 26 31  1  0  0  0
 26 51  1  0  0  0
 27 28  1  0  0  0
 27 52  1  0  0  0
 27 53  1  0  0  0
 28 29  1  0  0  0
 28 54  1  0  0  0
 28 55  1  0  0  0
 29 30  1  0  0  0
 29 32  1  0  0  0
 29 65  1  0  0  0
 30 31  1  0  0  0
 30 56  1  0  0  0
 30 57  1  0  0  0
 31 58  1  0  0  0
 31 59  1  0  0  0
 32 33  1  0  0  0
 32 60  1  0  0  0
 32 61  1  0  0  0
 33 34  2  0  0  0
 33 37  1  0  0  0
 34 35  1  0  0  0
 35 36  2  0  0  0
 35 38  1  0  0  0
 36 37  1  0  0  0
 38 62  1  0  0  0
 38 63  1  0  0  0
 38 64  1  0  0  0
M  CHG  1  29   1
M  END
> <chembl_id>
CHEMBL1669280

> <chembl_pref_name>
None

> <s_m_source_file>
sdf/inactives_sanitized.sdf

> <i_m_source_file_index>
242

> <i_lp_mmshare_version>
49012

> <i_m_ct_stereo_status>
1

> <i_f3d_flags>
0

> <s_epik_input>
bjFbY0hdbihbQ0gzXSljKGMxMilbY0hdYyhuYzJDI04pLWMoW2NIXTMpW2NIXVtjSF1jKGMzQyhGKShGKUYpT1tDSDJdW0NIMl1bQ0hdNFtDSDJdW0NIMl1OKFtDSDJdW0NIMl00KVtDSDJdYzVuYyhubzUpW0NIM10=

> <s_epik_cmdline>
J2VwaWtfcHl0aG9uJywgJy1waHQnLCAnMC41JywgJy1waCcsICc3LjUnLCAnLW50JywgJy1tYScsICcyMDAnLCAnLWltYWUnLCAnPGluZmlsZS5tYWU+JywgJy1vbWFlJywgJzxvdXRmaWxlLm1hZT4n

> <r_lp_tautomer_probability>
1

> <r_epik_Ionization_Penalty>
  0.0035

> <r_epik_Ionization_Penalty_Charging>
  0.0035

> <r_epik_Ionization_Penalty_Neutral>
  0.0000

> <r_epik_State_Penalty>
 -0.0000

> <r_epik_Charging_Adjusted_Penalty>
0.00351814100189932

> <i_epik_Tot_Q>
1

> <i_epik_Tot_abs_Q>
1

> <s_lp_Force_Field>
OPLS3e

> <r_lp_Energy>
39.104189

> <b_lp_Chiralities_Consistent>
1

> <s_lp_Variant>
sdf/inactives_sanitized.sdf:242-1

$$$$
sdf/inactives_sanitized.sdf:243
                    3D
 Schrodinger Suite 2020-1.
 51 53  0  0  1  0            999 V2000
   -2.1214   -3.2227    1.4992 S   0  0  0  0  0  0
   -3.3024   -2.5463    0.9501 O   0  0  0  0  0  0
   -1.9616   -4.6714    1.3290 O   0  0  0  0  0  0
   -0.5543   -2.3686    0.8463 C   0  0  2  0  0  0
   -0.5516   -0.8563    1.1590 C   0  0  0  0  0  0
   -0.1019   -0.1414   -0.1346 C   0  0  2  0  0  0
   -0.5703   -1.0906   -1.2825 C   0  0  1  0  0  0
   -0.4301   -2.5121   -0.6842 C   0  0  0  0  0  0
    1.4383    0.0494   -0.1279 C   0  0  0  0  0  0
   -2.0450   -0.8303   -1.7212 C   0  0  0  0  0  0
   -2.7712   -0.1314   -1.0085 O   0  0  0  0  0  0
   -2.5348   -1.4835   -2.8106 N   0  0  0  0  0  0
   -1.6725   -2.0853   -3.8412 C   0  0  0  0  0  0
   -1.6425   -1.0877   -5.0215 C   0  0  0  0  0  0
   -2.9716   -0.8275   -5.4775 O   0  0  0  0  0  0
   -3.8305   -0.2917   -4.4679 C   0  0  0  0  0  0
   -3.9189   -1.2592   -3.2635 C   0  0  0  0  0  0
    1.8860    1.2603    0.2479 N   0  0  0  0  0  0
    2.1951   -0.8346   -0.5334 O   0  0  0  0  0  0
    3.2890    1.6669    0.2312 C   0  0  0  0  0  0
    3.8537    1.7170   -1.1293 C   0  0  0  0  0  0
    4.2965    1.7559   -2.1976 N   0  0  0  0  0  0
   -2.0740   -2.8909    3.2593 C   0  0  0  0  0  0
   -2.8227   -1.8403    3.7965 C   0  0  0  0  0  0
   -2.7709   -1.5836    5.1640 C   0  0  0  0  0  0
   -1.9725   -2.3768    5.9858 C   0  0  0  0  0  0
   -1.2237   -3.4247    5.4534 C   0  0  0  0  0  0
   -1.2738   -3.6828    4.0861 C   0  0  0  0  0  0
    0.2798   -2.8703    1.3387 H   0  0  0  0  0  0
   -1.5556   -0.5033    1.3968 H   0  0  0  0  0  0
    0.0661   -0.6157    2.0266 H   0  0  0  0  0  0
   -0.5250    0.8582   -0.2617 H   0  0  0  0  0  0
    0.0323   -0.9279   -2.1778 H   0  0  0  0  0  0
   -1.1339   -3.2386   -1.0952 H   0  0  0  0  0  0
    0.5571   -2.8998   -0.9388 H   0  0  0  0  0  0
   -0.7139   -2.4817   -3.5072 H   0  0  0  0  0  0
   -2.2161   -2.9786   -4.1519 H   0  0  0  0  0  0
   -1.1524   -0.1557   -4.7326 H   0  0  0  0  0  0
   -1.0477   -1.4947   -5.8392 H   0  0  0  0  0  0
   -3.4718    0.6904   -4.1532 H   0  0  0  0  0  0
   -4.8232   -0.1285   -4.8873 H   0  0  0  0  0  0
   -4.2560   -2.2372   -3.6095 H   0  0  0  0  0  0
   -4.6228   -0.9843   -2.4764 H   0  0  0  0  0  0
    1.2138    1.9732    0.4913 H   0  0  0  0  0  0
    3.3748    2.6620    0.6676 H   0  0  0  0  0  0
    3.8945    0.9950    0.8418 H   0  0  0  0  0  0
   -3.4407   -1.2218    3.1622 H   0  0  0  0  0  0
   -3.3470   -0.7729    5.5852 H   0  0  0  0  0  0
   -1.9329   -2.1770    7.0466 H   0  0  0  0  0  0
   -0.6070   -4.0337    6.0980 H   0  0  0  0  0  0
   -0.6910   -4.4932    3.6731 H   0  0  0  0  0  0
  1  2  2  0  0  0
  1  3  2  0  0  0
  1  4  1  0  0  0
  1 23  1  0  0  0
  4  5  1  0  0  0
  4  8  1  0  0  0
  4 29  1  0  0  0
  5  6  1  0  0  0
  5 30  1  0  0  0
  5 31  1  0  0  0
  6  7  1  0  0  0
  6  9  1  0  0  0
  6 32  1  0  0  0
  7  8  1  0  0  0
  7 10  1  0  0  0
  7 33  1  0  0  0
  8 34  1  0  0  0
  8 35  1  0  0  0
  9 18  1  0  0  0
  9 19  2  0  0  0
 10 11  2  0  0  0
 10 12  1  0  0  0
 12 13  1  0  0  0
 12 17  1  0  0  0
 13 14  1  0  0  0
 13 36  1  0  0  0
 13 37  1  0  0  0
 14 15  1  0  0  0
 14 38  1  0  0  0
 14 39  1  0  0  0
 15 16  1  0  0  0
 16 17  1  0  0  0
 16 40  1  0  0  0
 16 41  1  0  0  0
 17 42  1  0  0  0
 17 43  1  0  0  0
 18 20  1  0  0  0
 18 44  1  0  0  0
 20 21  1  0  0  0
 20 45  1  0  0  0
 20 46  1  0  0  0
 21 22  3  0  0  0
 23 24  2  0  0  0
 23 28  1  0  0  0
 24 25  1  0  0  0
 24 47  1  0  0  0
 25 26  2  0  0  0
 25 48  1  0  0  0
 26 27  1  0  0  0
 26 49  1  0  0  0
 27 28  2  0  0  0
 27 50  1  0  0  0
 28 51  1  0  0  0
M  END
> <chembl_id>
CHEMBL3093940

> <chembl_pref_name>
None

> <i_m_ct_stereo_status>
1

> <s_m_source_file>
sdf/inactives_sanitized.sdf

> <i_m_source_file_index>
243

> <i_lp_mmshare_version>
49012

> <i_f3d_flags>
0

> <s_epik_input>
W2NIXTFbY0hdW2NIXVtjSF1bY0hdYzFTKD1PKSg9TylbQ0BASF0yW0NIMl1bQ0BASF0oQyg9TylbTkhdW0NIMl1DI04pW0NAQEhdKFtDSDJdMilDKD1PKU4zW0NIMl1bQ0gyXU9bQ0gyXVtDSDJdMw==

> <s_epik_cmdline>
J2VwaWtfcHl0aG9uJywgJy1waHQnLCAnMC41JywgJy1waCcsICc3LjUnLCAnLW50JywgJy1tYScsICcyMDAnLCAnLWltYWUnLCAnPGluZmlsZS5tYWU+JywgJy1vbWFlJywgJzxvdXRmaWxlLm1hZT4n

> <r_lp_tautomer_probability>
1

> <r_epik_Ionization_Penalty>
  0.0000

> <r_epik_Ionization_Penalty_Charging>
  0.0000

> <r_epik_Ionization_Penalty_Neutral>
  0.0000

> <r_epik_State_Penalty>
 -0.0000

> <r_epik_Charging_Adjusted_Penalty>
0

> <i_epik_Tot_Q>
0

> <i_epik_Tot_abs_Q>
0

> <s_lp_Force_Field>
OPLS3e

> <r_lp_Energy>
14.902274

> <b_lp_Chiralities_Consistent>
1

> <s_lp_Variant>
sdf/inactives_sanitized.sdf:243-1

$$$$
sdf/inactives_sanitized.sdf:244
                    3D
 Schrodinger Suite 2020-1.
 53 56  0  0  1  0            999 V2000
   -1.9667    2.6236   -2.3592 C   0  0  2  0  0  0
   -2.4353    4.3486   -1.2231 N   0  0  0  0  0  0
   -1.3455    4.0175   -2.0311 C   0  0  0  0  0  0
   -3.1241    3.0539   -1.4258 C   0  0  1  0  0  0
   -1.2292    1.4170   -1.9443 N   0  0  0  0  0  0
   -0.4612    1.2140   -0.8536 C   0  0  0  0  0  0
    2.4781   -0.2722   -1.2126 C   0  0  0  0  0  0
    0.0497   -0.2316   -0.6544 C   0  0  1  0  0  0
    1.4657   -0.2711   -0.2602 N   0  0  0  0  0  0
   -4.7452    3.4715   -2.1187 S   0  0  0  0  0  0
   -0.3487    4.6375   -2.3968 O   0  0  0  0  0  0
   -0.2105    2.0660    0.0003 O   0  0  0  0  0  0
   -0.7782   -1.0476    0.3728 C   0  0  0  0  0  0
    2.3316   -0.2568   -2.4378 O   0  0  0  0  0  0
    3.6669   -0.2889   -0.5801 O   0  0  0  0  0  0
   -3.2537    5.5500   -1.3182 C   0  0  0  0  0  0
   -4.3306    5.2187   -2.3668 C   0  0  0  0  0  0
    4.8836   -0.2862   -1.3164 C   0  0  0  0  0  0
   -2.2728   -1.1428    0.0996 C   0  0  0  0  0  0
    6.0563   -0.2944   -0.3539 C   0  0  0  0  0  0
   -3.1658   -0.2143    0.6769 C   0  0  0  0  0  0
   -2.7580   -2.0463   -0.8696 C   0  0  0  0  0  0
    6.6631    0.9088    0.0137 C   0  0  0  0  0  0
    6.5232   -1.5055    0.1626 C   0  0  0  0  0  0
    7.5986   -1.5128    1.0473 C   0  0  0  0  0  0
   -4.5108   -0.2364    0.3329 C   0  0  0  0  0  0
   -4.1072   -2.0537   -1.1988 C   0  0  0  0  0  0
    7.7384    0.9005    0.8985 C   0  0  0  0  0  0
    8.2011   -0.3101    1.4111 C   0  0  0  0  0  0
   -4.9798   -1.1556   -0.5971 C   0  0  0  0  0  0
   -2.2241    2.4705   -3.4078 H   0  0  0  0  0  0
   -3.2650    2.4842   -0.5055 H   0  0  0  0  0  0
   -1.4355    0.5970   -2.4964 H   0  0  0  0  0  0
   -0.0803   -0.7700   -1.5979 H   0  0  0  0  0  0
    1.7014   -0.2402    0.7209 H   0  0  0  0  0  0
   -0.3869   -2.0655    0.4191 H   0  0  0  0  0  0
   -0.6372   -0.6391    1.3753 H   0  0  0  0  0  0
   -3.7005    5.7209   -0.3384 H   0  0  0  0  0  0
   -2.6436    6.4126   -1.5892 H   0  0  0  0  0  0
   -3.9417    5.3300   -3.3799 H   0  0  0  0  0  0
   -5.2265    5.8293   -2.2544 H   0  0  0  0  0  0
    4.9410   -1.1602   -1.9678 H   0  0  0  0  0  0
    4.9416    0.5935   -1.9601 H   0  0  0  0  0  0
   -2.8051    0.5208    1.3818 H   0  0  0  0  0  0
   -2.0819   -2.7316   -1.3598 H   0  0  0  0  0  0
    6.3032    1.8475   -0.3824 H   0  0  0  0  0  0
    6.0541   -2.4374   -0.1186 H   0  0  0  0  0  0
    7.9635   -2.4463    1.4501 H   0  0  0  0  0  0
   -5.1925    0.4710    0.7817 H   0  0  0  0  0  0
   -4.4778   -2.7533   -1.9336 H   0  0  0  0  0  0
    8.2112    1.8279    1.1865 H   0  0  0  0  0  0
    9.0349   -0.3161    2.0976 H   0  0  0  0  0  0
   -6.0266   -1.1637   -0.8629 H   0  0  0  0  0  0
  1  3  1  0  0  0
  1  4  1  0  0  0
  1  5  1  0  0  0
  1 31  1  0  0  0
  2  4  1  0  0  0
  2 16  1  0  0  0
  2  3  1  0  0  0
  3 11  2  0  0  0
  4 10  1  0  0  0
  4 32  1  0  0  0
  5  6  1  0  0  0
  5 33  1  0  0  0
  6  8  1  0  0  0
  6 12  2  0  0  0
  7  9  1  0  0  0
  7 14  2  0  0  0
  7 15  1  0  0  0
  8  9  1  0  0  0
  8 13  1  0  0  0
  8 34  1  0  0  0
  9 35  1  0  0  0
 10 17  1  0  0  0
 13 19  1  0  0  0
 13 36  1  0  0  0
 13 37  1  0  0  0
 15 18  1  0  0  0
 16 17  1  0  0  0
 16 38  1  0  0  0
 16 39  1  0  0  0
 17 40  1  0  0  0
 17 41  1  0  0  0
 18 20  1  0  0  0
 18 42  1  0  0  0
 18 43  1  0  0  0
 19 21  2  0  0  0
 19 22  1  0  0  0
 20 23  2  0  0  0
 20 24  1  0  0  0
 21 26  1  0  0  0
 21 44  1  0  0  0
 22 27  2  0  0  0
 22 45  1  0  0  0
 23 28  1  0  0  0
 23 46  1  0  0  0
 24 25  2  0  0  0
 24 47  1  0  0  0
 25 29  1  0  0  0
 25 48  1  0  0  0
 26 30  2  0  0  0
 26 49  1  0  0  0
 27 30  1  0  0  0
 27 50  1  0  0  0
 28 29  2  0  0  0
 28 51  1  0  0  0
 29 52  1  0  0  0
 30 53  1  0  0  0
M  END
> <chembl_id>
CHEMBL421054

> <chembl_pref_name>
None

> <i_m_ct_stereo_status>
1

> <s_m_source_file>
sdf/inactives_sanitized.sdf

> <i_m_source_file_index>
244

> <i_lp_mmshare_version>
49012

> <i_f3d_flags>
0

> <s_epik_input>
W0NIMl0xW0NIMl1TW0NASF0oTjEyKVtDQEBIXShDMj1PKVtOSF1DKD1PKVtDQEhdKFtDSDJdYzNbY0hdW2NIXVtjSF1bY0hdW2NIXTMpW05IXUMoPU8pT1tDSDJdYzRbY0hdW2NIXVtjSF1bY0hdW2NIXTQ=

> <s_epik_cmdline>
J2VwaWtfcHl0aG9uJywgJy1waHQnLCAnMC41JywgJy1waCcsICc3LjUnLCAnLW50JywgJy1tYScsICcyMDAnLCAnLWltYWUnLCAnPGluZmlsZS5tYWU+JywgJy1vbWFlJywgJzxvdXRmaWxlLm1hZT4n

> <r_lp_tautomer_probability>
1

> <r_epik_Ionization_Penalty>
  0.0000

> <r_epik_Ionization_Penalty_Charging>
  0.0000

> <r_epik_Ionization_Penalty_Neutral>
  0.0000

> <r_epik_State_Penalty>
 -0.0000

> <r_epik_Charging_Adjusted_Penalty>
0

> <i_epik_Tot_Q>
0

> <i_epik_Tot_abs_Q>
0

> <s_epik_Chemistry_Notes>
This compound has an ester and may undergo hydrolysis at high or low pH. This compound contains an acetal/aminal-like group ( X-CH(R)-Y where X, Y are N, S, or O) that may be acid/base labile, releasing an aldehyde.

> <s_lp_Force_Field>
OPLS3e

> <r_lp_Energy>
42.062191

> <b_lp_Chiralities_Consistent>
1

> <s_lp_Variant>
sdf/inactives_sanitized.sdf:244-1

$$$$
sdf/inactives_sanitized.sdf:245
                    3D
 Schrodinger Suite 2020-1.
 44 47  0  0  1  0            999 V2000
   -0.7390    1.2062   -0.1376 N   0  0  0  0  0  0
   -0.0954    0.0079   -0.0451 C   0  0  0  0  0  0
   -0.7741   -1.2199    0.0299 C   0  0  0  0  0  0
   -2.0947    1.2504   -0.1517 C   0  0  0  0  0  0
   -3.1735   -2.1063    0.0723 N   0  0  0  0  0  0
   -4.3625   -1.4123    0.0222 C   0  0  0  0  0  0
   -4.2239   -0.1151   -0.0691 N   0  0  0  0  0  0
   -2.8650    0.0779   -0.0742 C   0  0  0  0  0  0
   -2.1727   -1.1570    0.0157 C   0  0  0  0  0  0
   -2.6732    2.5819   -0.2527 C   0  0  0  0  0  0
   -3.1337    3.6406   -0.3334 N   0  0  0  0  0  0
    1.3992    0.0715   -0.0442 C   0  0  0  0  0  0
    2.1569   -0.8584    0.6801 C   0  0  0  0  0  0
    3.5584   -0.8238    0.6899 C   0  0  0  0  0  0
    4.2322    0.1690   -0.0415 C   0  0  0  0  0  0
    3.4794    1.1066   -0.7652 C   0  0  0  0  0  0
    2.0882    1.0558   -0.7645 C   0  0  0  0  0  0
    4.3497   -1.8627    1.4930 C   0  0  0  0  0  0
    5.1471   -2.5514    0.6755 F   0  0  0  0  0  0
    5.1039   -1.2489    2.4057 F   0  0  0  0  0  0
    3.5636   -2.7341    2.1287 F   0  0  0  0  0  0
   -3.0132   -3.5457    0.1830 C   0  0  0  0  0  0
    5.6153    0.1662   -0.0059 O   0  0  0  0  0  0
    6.3502    1.1377   -0.7493 C   0  0  0  0  0  0
    7.8515    0.9378   -0.5765 C   0  0  0  0  0  0
    8.6301    1.7275   -1.3644 N   0  0  0  0  0  0
    9.9783    1.6049   -1.2596 C   0  0  0  0  0  0
   10.5922    0.7110   -0.3811 C   0  0  0  0  0  0
    9.7828   -0.0910    0.4253 C   0  0  0  0  0  0
    8.3937    0.0189    0.3331 C   0  0  0  0  0  0
   -0.2510   -2.1629    0.0879 H   0  0  0  0  0  0
   -5.3002   -1.9480    0.0580 H   0  0  0  0  0  0
    1.6440   -1.6174    1.2520 H   0  0  0  0  0  0
    3.9558    1.8862   -1.3395 H   0  0  0  0  0  0
    1.5453    1.7919   -1.3397 H   0  0  0  0  0  0
   -2.4115   -3.9066   -0.6516 H   0  0  0  0  0  0
   -3.9862   -4.0384    0.1650 H   0  0  0  0  0  0
   -2.5058   -3.7800    1.1192 H   0  0  0  0  0  0
    6.1021    1.0542   -1.8095 H   0  0  0  0  0  0
    6.0917    2.1407   -0.4045 H   0  0  0  0  0  0
   10.5710    2.2423   -1.8992 H   0  0  0  0  0  0
   11.6686    0.6411   -0.3261 H   0  0  0  0  0  0
   10.2273   -0.7919    1.1163 H   0  0  0  0  0  0
    7.7634   -0.5982    0.9568 H   0  0  0  0  0  0
  1  2  2  0  0  0
  1  4  1  0  0  0
  2 12  1  0  0  0
  2  3  1  0  0  0
  3  9  2  0  0  0
  3 31  1  0  0  0
  4  8  2  0  0  0
  4 10  1  0  0  0
  5  6  1  0  0  0
  5  9  1  0  0  0
  5 22  1  0  0  0
  6  7  2  0  0  0
  6 32  1  0  0  0
  7  8  1  0  0  0
  8  9  1  0  0  0
 10 11  3  0  0  0
 12 17  1  0  0  0
 12 13  2  0  0  0
 13 14  1  0  0  0
 13 33  1  0  0  0
 14 15  2  0  0  0
 14 18  1  0  0  0
 15 16  1  0  0  0
 15 23  1  0  0  0
 16 17  2  0  0  0
 16 34  1  0  0  0
 17 35  1  0  0  0
 18 19  1  0  0  0
 18 20  1  0  0  0
 18 21  1  0  0  0
 22 36  1  0  0  0
 22 37  1  0  0  0
 22 38  1  0  0  0
 23 24  1  0  0  0
 24 25  1  0  0  0
 24 39  1  0  0  0
 24 40  1  0  0  0
 25 26  2  0  0  0
 25 30  1  0  0  0
 26 27  1  0  0  0
 27 28  2  0  0  0
 27 41  1  0  0  0
 28 29  1  0  0  0
 28 42  1  0  0  0
 29 30  2  0  0  0
 29 43  1  0  0  0
 30 44  1  0  0  0
M  END
> <chembl_id>
CHEMBL1208975

> <chembl_pref_name>
None

> <s_m_source_file>
sdf/inactives_sanitized.sdf

> <i_m_source_file_index>
245

> <i_lp_mmshare_version>
49012

> <i_m_ct_stereo_status>
1

> <i_f3d_flags>
0

> <s_epik_input>
bjFbY0hdbihbQ0gzXSljKGMxMilbY0hdYyhuYzJDI04pLWMzW2NIXWMoQyhGKShGKUYpYyhbY0hdW2NIXTMpT1tDSDJdYzRuW2NIXVtjSF1bY0hdW2NIXTQ=

> <s_epik_cmdline>
J2VwaWtfcHl0aG9uJywgJy1waHQnLCAnMC41JywgJy1waCcsICc3LjUnLCAnLW50JywgJy1tYScsICcyMDAnLCAnLWltYWUnLCAnPGluZmlsZS5tYWU+JywgJy1vbWFlJywgJzxvdXRmaWxlLm1hZT4n

> <r_lp_tautomer_probability>
1

> <r_epik_Ionization_Penalty>
  0.0009

> <r_epik_Ionization_Penalty_Charging>
  0.0000

> <r_epik_Ionization_Penalty_Neutral>
  0.0009

> <r_epik_State_Penalty>
 -0.0000

> <r_epik_Charging_Adjusted_Penalty>
2.10485508124941e-07

> <i_epik_Tot_Q>
0

> <i_epik_Tot_abs_Q>
0

> <s_lp_Force_Field>
OPLS3e

> <r_lp_Energy>
40.858045

> <b_lp_Chiralities_Consistent>
1

> <s_lp_Variant>
sdf/inactives_sanitized.sdf:245-1

$$$$
sdf/inactives_sanitized.sdf:246
                    3D
 Schrodinger Suite 2020-1.
 68 72  0  0  1  0            999 V2000
    4.4165   -7.9023    5.4917 C   0  0  0  0  0  0
    4.7641   -6.6830    4.6647 C   0  0  0  0  0  0
    5.3083   -6.8301    6.0713 C   0  0  0  0  0  0
    5.6719   -3.2177    2.0525 C   0  0  0  0  0  0
    5.1234   -4.5365    2.6375 C   0  0  0  0  0  0
    4.2582   -4.3083    3.9034 C   0  0  0  0  0  0
    3.6572   -5.6305    4.4214 C   0  0  0  0  0  0
    5.7474   -6.8626    3.4847 C   0  0  0  0  0  0
    6.2788   -5.4990    2.9993 C   0  0  0  0  0  0
    4.6304   -2.3078    1.5835 N   0  0  0  0  0  0
    0.1599    0.1415    0.3327 C   0  0  0  0  0  0
    1.5636    0.1726    0.2235 N   0  0  0  0  0  0
    2.4630   -0.3119    1.1083 C   0  0  0  0  0  0
    3.9145   -0.1146    0.7216 C   0  0  0  0  0  0
    2.1640   -0.8795    2.1612 O   0  0  0  0  0  0
    4.9309   -1.0703    0.9783 C   0  0  0  0  0  0
    6.2272   -0.8362    0.6195 N   0  0  0  0  0  0
    6.4968    0.3440    0.0119 C   0  0  0  0  0  0
    5.6060    1.3204   -0.2795 N   0  0  0  0  0  0
    4.3230    1.0712    0.0832 C   0  0  0  0  0  0
    7.8790    0.5831   -0.3656 C   0  0  0  0  0  0
    8.9804    0.7733   -0.6664 N   0  0  0  0  0  0
   -0.5004   -1.0131    0.7757 C   0  0  0  0  0  0
   -1.9009   -1.0736    0.8330 C   0  0  0  0  0  0
   -2.6508    0.0337    0.4188 C   0  0  0  0  0  0
   -1.9848    1.1824   -0.0376 C   0  0  0  0  0  0
   -0.5884    1.2590   -0.0845 C   0  0  0  0  0  0
    0.0445    2.5235   -0.5645 C   0  0  0  0  0  0
   -0.2911    3.0501   -1.8176 C   0  0  0  0  0  0
    0.2937    4.2309   -2.2679 C   0  0  0  0  0  0
    1.2160    4.8942   -1.4629 C   0  0  0  0  0  0
    1.5554    4.3879   -0.2114 C   0  0  0  0  0  0
    0.9680    3.2077    0.2360 C   0  0  0  0  0  0
   -4.0289   -0.0783    0.4870 O   0  0  0  0  0  0
   -4.8442    1.0121    0.0707 C   0  0  0  0  0  0
   -2.6035   -2.1817    1.2740 O   0  0  0  0  0  0
   -1.8939   -3.3235    1.7432 C   0  0  0  0  0  0
    3.3987   -8.0062    5.8686 H   0  0  0  0  0  0
    4.8529   -8.8628    5.2161 H   0  0  0  0  0  0
    6.3706   -7.0374    6.2032 H   0  0  0  0  0  0
    4.9175   -6.1806    6.8551 H   0  0  0  0  0  0
    6.2627   -2.6974    2.8083 H   0  0  0  0  0  0
    6.3765   -3.4197    1.2441 H   0  0  0  0  0  0
    4.5019   -5.0227    1.8824 H   0  0  0  0  0  0
    4.8510   -3.8230    4.6808 H   0  0  0  0  0  0
    3.4552   -3.6016    3.6903 H   0  0  0  0  0  0
    3.0785   -5.4480    5.3282 H   0  0  0  0  0  0
    2.9515   -6.0181    3.6854 H   0  0  0  0  0  0
    6.5798   -7.5127    3.7587 H   0  0  0  0  0  0
    5.2321   -7.3619    2.6629 H   0  0  0  0  0  0
    6.9276   -5.0451    3.7506 H   0  0  0  0  0  0
    6.9228   -5.6460    2.1310 H   0  0  0  0  0  0
    3.7085   -2.4122    1.9838 H   0  0  0  0  0  0
    1.9228    0.6887   -0.5663 H   0  0  0  0  0  0
    3.6215    1.8613   -0.1443 H   0  0  0  0  0  0
    0.0860   -1.8730    1.0607 H   0  0  0  0  0  0
   -2.5501    2.0457   -0.3556 H   0  0  0  0  0  0
   -1.0046    2.5402   -2.4491 H   0  0  0  0  0  0
    0.0326    4.6306   -3.2368 H   0  0  0  0  0  0
    1.6700    5.8102   -1.8111 H   0  0  0  0  0  0
    2.2684    4.9090    0.4105 H   0  0  0  0  0  0
    1.2319    2.8242    1.2113 H   0  0  0  0  0  0
   -5.8935    0.7442    0.1943 H   0  0  0  0  0  0
   -4.6866    1.2498   -0.9822 H   0  0  0  0  0  0
   -4.6589    1.9032    0.6723 H   0  0  0  0  0  0
   -2.6067   -4.0809    2.0688 H   0  0  0  0  0  0
   -1.2611   -3.0782    2.5975 H   0  0  0  0  0  0
   -1.2802   -3.7651    0.9567 H   0  0  0  0  0  0
  1  2  1  0  0  0
  1  3  1  0  0  0
  1 38  1  0  0  0
  1 39  1  0  0  0
  2  8  1  0  0  0
  2  3  1  0  0  0
  2  7  1  0  0  0
  3 40  1  0  0  0
  3 41  1  0  0  0
  4  5  1  0  0  0
  4 10  1  0  0  0
  4 42  1  0  0  0
  4 43  1  0  0  0
  5  6  1  0  0  0
  5  9  1  0  0  0
  5 44  1  0  0  0
  6  7  1  0  0  0
  6 45  1  0  0  0
  6 46  1  0  0  0
  7 47  1  0  0  0
  7 48  1  0  0  0
  8  9  1  0  0  0
  8 49  1  0  0  0
  8 50  1  0  0  0
  9 51  1  0  0  0
  9 52  1  0  0  0
 10 16  1  0  0  0
 10 53  1  0  0  0
 11 23  2  0  0  0
 11 12  1  0  0  0
 11 27  1  0  0  0
 12 13  1  0  0  0
 12 54  1  0  0  0
 13 14  1  0  0  0
 13 15  2  0  0  0
 14 20  2  0  0  0
 14 16  1  0  0  0
 16 17  2  0  0  0
 17 18  1  0  0  0
 18 19  2  0  0  0
 18 21  1  0  0  0
 19 20  1  0  0  0
 20 55  1  0  0  0
 21 22  3  0  0  0
 23 24  1  0  0  0
 23 56  1  0  0  0
 24 25  2  0  0  0
 24 36  1  0  0  0
 25 26  1  0  0  0
 25 34  1  0  0  0
 26 27  2  0  0  0
 26 57  1  0  0  0
 27 28  1  0  0  0
 28 29  2  0  0  0
 28 33  1  0  0  0
 29 30  1  0  0  0
 29 58  1  0  0  0
 30 31  2  0  0  0
 30 59  1  0  0  0
 31 32  1  0  0  0
 31 60  1  0  0  0
 32 33  2  0  0  0
 32 61  1  0  0  0
 33 62  1  0  0  0
 34 35  1  0  0  0
 35 63  1  0  0  0
 35 64  1  0  0  0
 35 65  1  0  0  0
 36 37  1  0  0  0
 37 66  1  0  0  0
 37 67  1  0  0  0
 37 68  1  0  0  0
M  END
> <chembl_id>
CHEMBL456757

> <chembl_pref_name>
None

> <s_m_source_file>
sdf/inactives_sanitized.sdf

> <i_m_source_file_index>
246

> <i_lp_mmshare_version>
49012

> <i_m_ct_stereo_status>
1

> <i_f3d_flags>
0

> <s_epik_input>
W0NIMl0xW0NIMl1DMTJbQ0gyXVtDSDJdW0NIXShbQ0gyXVtDSDJdMilbQ0gyXVtOSF1jKG5jKEMjTiluW2NIXTMpYzNDKD1PKVtOSF1jNFtjSF1jKE9bQ0gzXSljKE9bQ0gzXSlbY0hdYzQtYzVbY0hdW2NIXVtjSF1bY0hdW2NIXTU=

> <s_epik_cmdline>
J2VwaWtfcHl0aG9uJywgJy1waHQnLCAnMC41JywgJy1waCcsICc3LjUnLCAnLW50JywgJy1tYScsICcyMDAnLCAnLWltYWUnLCAnPGluZmlsZS5tYWU+JywgJy1vbWFlJywgJzxvdXRmaWxlLm1hZT4n

> <r_lp_tautomer_probability>
1

> <r_epik_Ionization_Penalty>
  0.0010

> <r_epik_Ionization_Penalty_Charging>
  0.0000

> <r_epik_Ionization_Penalty_Neutral>
  0.0010

> <r_epik_State_Penalty>
 -0.0000

> <r_epik_Charging_Adjusted_Penalty>
0

> <i_epik_Tot_Q>
0

> <i_epik_Tot_abs_Q>
0

> <s_lp_Force_Field>
OPLS3e

> <r_lp_Energy>
49.321401

> <b_lp_Chiralities_Consistent>
1

> <s_lp_Variant>
sdf/inactives_sanitized.sdf:246-1

$$$$
sdf/inactives_sanitized.sdf:247
                    3D
 Schrodinger Suite 2020-1.
 48 49  0  0  1  0            999 V2000
   -0.1906    1.6619    0.1853 C   0  0  0  0  0  0
   -1.5829    1.5856    0.2694 N   0  0  0  0  0  0
   -4.0554   -0.0082    3.0219 C   0  0  0  0  0  0
   -4.0813   -0.9223    3.7305 N   0  0  0  0  0  0
    0.3799    0.4403    0.3706 O   0  0  0  0  0  0
   -2.3477    0.3576    0.5162 C   0  0  0  0  0  0
   -2.4437    2.7554    0.0862 C   0  0  0  0  0  0
    0.4496    2.6931   -0.0344 O   0  0  0  0  0  0
   -3.9764    1.0775    2.2318 N   0  0  2  0  0  0
   -3.8554    2.1617    0.0358 C   0  0  0  0  0  0
   -3.7721    0.8491    0.8062 C   0  0  1  0  0  0
    1.7933    0.2379    0.3039 C   0  0  2  0  0  0
    2.0439   -1.2378   -0.0945 C   0  0  0  0  0  0
    1.3326   -1.7094   -1.3895 C   0  0  0  0  0  0
    2.4431    0.6223    1.6567 C   0  0  0  0  0  0
    1.5998   -3.2090   -1.6567 C   0  0  0  0  0  0
    1.7563   -0.9022   -2.6412 C   0  0  0  0  0  0
    3.9790    0.5808    1.6537 C   0  0  0  0  0  0
    0.8178   -3.7121   -2.8872 C   0  0  0  0  0  0
    0.9791   -1.3564   -3.8937 C   0  0  0  0  0  0
    1.1362   -2.8721   -4.1431 C   0  0  0  0  0  0
   -2.3470   -0.2241   -0.4066 H   0  0  0  0  0  0
   -1.9525   -0.3020    1.2902 H   0  0  0  0  0  0
   -2.3300    3.4295    0.9361 H   0  0  0  0  0  0
   -2.2013    3.3004   -0.8272 H   0  0  0  0  0  0
   -3.4161    1.8483    2.5659 H   0  0  0  0  0  0
   -4.6017    2.8588    0.4202 H   0  0  0  0  0  0
   -4.1307    1.9503   -0.9987 H   0  0  0  0  0  0
   -4.5010    0.1052    0.4805 H   0  0  0  0  0  0
    2.2133    0.8768   -0.4748 H   0  0  0  0  0  0
    3.1157   -1.4017   -0.2104 H   0  0  0  0  0  0
    1.7293   -1.8798    0.7303 H   0  0  0  0  0  0
    0.2546   -1.5897   -1.2629 H   0  0  0  0  0  0
    2.1375    1.6325    1.9319 H   0  0  0  0  0  0
    2.0624   -0.0258    2.4474 H   0  0  0  0  0  0
    2.6698   -3.3861   -1.7790 H   0  0  0  0  0  0
    1.3206   -3.7957   -0.7803 H   0  0  0  0  0  0
    1.5905    0.1632   -2.4810 H   0  0  0  0  0  0
    2.8320   -0.9949   -2.7999 H   0  0  0  0  0  0
    4.3758    0.9311    2.6067 H   0  0  0  0  0  0
    4.3902    1.2192    0.8709 H   0  0  0  0  0  0
    4.3561   -0.4298    1.4977 H   0  0  0  0  0  0
    1.0500   -4.7614   -3.0731 H   0  0  0  0  0  0
   -0.2529   -3.6688   -2.6818 H   0  0  0  0  0  0
   -0.0782   -1.1151   -3.7726 H   0  0  0  0  0  0
    1.3204   -0.7987   -4.7665 H   0  0  0  0  0  0
    0.4958   -3.1817   -4.9698 H   0  0  0  0  0  0
    2.1597   -3.0778   -4.4603 H   0  0  0  0  0  0
  1  2  1  0  0  0
  1  5  1  0  0  0
  1  8  2  0  0  0
  2  6  1  0  0  0
  2  7  1  0  0  0
  3  9  1  0  0  0
  3  4  3  0  0  0
  5 12  1  0  0  0
  6 11  1  0  0  0
  6 22  1  0  0  0
  6 23  1  0  0  0
  7 10  1  0  0  0
  7 24  1  0  0  0
  7 25  1  0  0  0
  9 11  1  0  0  0
  9 26  1  0  0  0
 10 11  1  0  0  0
 10 27  1  0  0  0
 10 28  1  0  0  0
 11 29  1  0  0  0
 12 13  1  0  0  0
 12 15  1  0  0  0
 12 30  1  0  0  0
 13 14  1  0  0  0
 13 31  1  0  0  0
 13 32  1  0  0  0
 14 16  1  0  0  0
 14 17  1  0  0  0
 14 33  1  0  0  0
 15 18  1  0  0  0
 15 34  1  0  0  0
 15 35  1  0  0  0
 16 19  1  0  0  0
 16 36  1  0  0  0
 16 37  1  0  0  0
 17 20  1  0  0  0
 17 38  1  0  0  0
 17 39  1  0  0  0
 18 40  1  0  0  0
 18 41  1  0  0  0
 18 42  1  0  0  0
 19 21  1  0  0  0
 19 43  1  0  0  0
 19 44  1  0  0  0
 20 21  1  0  0  0
 20 45  1  0  0  0
 20 46  1  0  0  0
 21 47  1  0  0  0
 21 48  1  0  0  0
M  END
> <chembl_id>
CHEMBL182578

> <chembl_pref_name>
None

> <i_m_ct_stereo_status>
1

> <s_m_source_file>
sdf/inactives_sanitized.sdf

> <i_m_source_file_index>
247

> <i_lp_mmshare_version>
49012

> <i_f3d_flags>
0

> <s_epik_input>
TiNDW05IXVtDQEBIXShbQ0gyXVtDSDJdMSlbQ0gyXU4xQyg9TylPW0NAQEhdKFtDSDJdW0NIM10pW0NIMl1bQ0hdMltDSDJdW0NIMl1bQ0gyXVtDSDJdW0NIMl0y

> <s_epik_cmdline>
J2VwaWtfcHl0aG9uJywgJy1waHQnLCAnMC41JywgJy1waCcsICc3LjUnLCAnLW50JywgJy1tYScsICcyMDAnLCAnLWltYWUnLCAnPGluZmlsZS5tYWU+JywgJy1vbWFlJywgJzxvdXRmaWxlLm1hZT4n

> <r_lp_tautomer_probability>
1

> <r_epik_Ionization_Penalty>
  0.0000

> <r_epik_Ionization_Penalty_Charging>
  0.0000

> <r_epik_Ionization_Penalty_Neutral>
  0.0000

> <r_epik_State_Penalty>
 -0.0000

> <r_epik_Charging_Adjusted_Penalty>
0

> <i_epik_Tot_Q>
0

> <i_epik_Tot_abs_Q>
0

> <s_epik_Chemistry_Notes>
This compound has an ester and may undergo hydrolysis at high or low pH.

> <s_lp_Force_Field>
OPLS3e

> <r_lp_Energy>
5.924406

> <b_lp_Chiralities_Consistent>
1

> <s_lp_Variant>
sdf/inactives_sanitized.sdf:247-1

$$$$
sdf/inactives_sanitized.sdf:248
                    3D
 Schrodinger Suite 2020-1.
 70 72  0  0  1  0            999 V2000
    3.4225   -0.5746    1.7773 C   0  0  0  0  0  0
    2.0857   -0.6804    1.4131 N   0  0  0  0  0  0
    0.0015    0.1628    0.4179 C   0  0  0  0  0  0
    1.5380    0.0773    0.2764 C   0  0  2  0  0  0
    4.2716    0.1472    1.2476 O   0  0  0  0  0  0
   -0.6422   -0.8098    0.8184 O   0  0  0  0  0  0
    3.6532   -1.3995    2.8164 O   0  0  0  0  0  0
    1.9611   -0.6027   -1.0616 C   0  0  0  0  0  0
   -9.8876    3.8423   10.1573 N   0  0  0  0  0  0
   -0.5600    1.3252    0.0423 N   0  0  0  0  0  0
   -6.8520    3.0971    6.1791 O   0  0  0  0  0  0
   -6.1902    2.8618    4.9893 C   0  0  0  0  0  0
   -4.6812    2.3775    2.6730 C   0  0  0  0  0  0
   -3.9827    2.1324    1.4776 N   0  0  0  0  0  0
    4.9518   -1.5116    3.3861 C   0  0  0  0  0  0
   -8.2769    3.1839    6.1843 C   0  0  0  0  0  0
   -4.8004    2.7689    5.0587 C   0  0  0  0  0  0
   -6.8240    2.7142    3.7462 C   0  0  0  0  0  0
   -4.0470    2.5291    3.9130 C   0  0  0  0  0  0
   -6.0715    2.4741    2.5995 C   0  0  0  0  0  0
   -8.8176    3.4165    7.5913 C   0  0  0  0  0  0
    4.9234   -2.5205    4.5202 C   0  0  0  0  0  0
    1.6119    0.1728   -2.3560 C   0  0  0  0  0  0
  -10.6892    3.7723    9.0644 C   0  0  0  0  0  0
   -8.5512    3.6999    9.9691 C   0  0  0  0  0  0
   -1.9950    1.5970    0.0664 C   0  0  0  0  0  0
   -2.5633    1.7962    1.4834 C   0  0  0  0  0  0
  -10.1979    3.5619    7.7745 C   0  0  0  0  0  0
   -7.9786    3.4873    8.7135 C   0  0  0  0  0  0
    5.0767   -2.0900    5.8404 C   0  0  0  0  0  0
    4.7454   -3.8776    4.2392 C   0  0  0  0  0  0
    1.9424   -0.6671   -3.6090 C   0  0  0  0  0  0
    2.2658    1.5708   -2.3989 C   0  0  0  0  0  0
    5.0494   -3.0170    6.8794 C   0  0  0  0  0  0
    4.7170   -4.8037    5.2788 C   0  0  0  0  0  0
    4.8694   -4.3690    6.5940 C   0  0  0  0  0  0
    1.4863   -1.3358    1.8934 H   0  0  0  0  0  0
    1.9391    1.0927    0.3307 H   0  0  0  0  0  0
    3.0396   -0.7677   -1.0649 H   0  0  0  0  0  0
    1.5147   -1.5982   -1.1109 H   0  0  0  0  0  0
    0.0357    2.0700   -0.2899 H   0  0  0  0  0  0
   -4.5297    1.7854    0.7026 H   0  0  0  0  0  0
    5.6734   -1.8380    2.6352 H   0  0  0  0  0  0
    5.2889   -0.5414    3.7560 H   0  0  0  0  0  0
   -8.5995    4.0095    5.5471 H   0  0  0  0  0  0
   -8.7080    2.2578    5.7990 H   0  0  0  0  0  0
   -4.3003    2.8817    6.0096 H   0  0  0  0  0  0
   -7.8968    2.7817    3.6499 H   0  0  0  0  0  0
   -2.9738    2.4614    4.0084 H   0  0  0  0  0  0
   -6.5793    2.3630    1.6521 H   0  0  0  0  0  0
    0.5318    0.3212   -2.3734 H   0  0  0  0  0  0
  -11.7491    3.8872    9.2371 H   0  0  0  0  0  0
   -7.9322    3.7586   10.8524 H   0  0  0  0  0  0
   -2.1680    2.4991   -0.5217 H   0  0  0  0  0  0
   -2.5375    0.8050   -0.4544 H   0  0  0  0  0  0
   -2.0146    2.5822    2.0041 H   0  0  0  0  0  0
   -2.4337    0.8885    2.0747 H   0  0  0  0  0  0
  -10.8767    3.5125    6.9354 H   0  0  0  0  0  0
   -6.9074    3.3805    8.6254 H   0  0  0  0  0  0
    5.2145   -1.0419    6.0633 H   0  0  0  0  0  0
    4.6262   -4.2133    3.2191 H   0  0  0  0  0  0
    2.7339   -0.2280   -4.2164 H   0  0  0  0  0  0
    1.0642   -0.7707   -4.2470 H   0  0  0  0  0  0
    2.2698   -1.6750   -3.3519 H   0  0  0  0  0  0
    3.0705    1.6678   -1.6696 H   0  0  0  0  0  0
    1.5304    2.3448   -2.1777 H   0  0  0  0  0  0
    2.6902    1.8087   -3.3742 H   0  0  0  0  0  0
    5.1665   -2.6893    7.9019 H   0  0  0  0  0  0
    4.5771   -5.8535    5.0666 H   0  0  0  0  0  0
    4.8471   -5.0874    7.4003 H   0  0  0  0  0  0
  1  2  1  0  0  0
  1  5  2  0  0  0
  1  7  1  0  0  0
  2  4  1  0  0  0
  2 37  1  0  0  0
  3  4  1  0  0  0
  3  6  2  0  0  0
  3 10  1  0  0  0
  4  8  1  0  0  0
  4 38  1  0  0  0
  7 15  1  0  0  0
  8 23  1  0  0  0
  8 39  1  0  0  0
  8 40  1  0  0  0
  9 25  2  0  0  0
  9 24  1  0  0  0
 10 26  1  0  0  0
 10 41  1  0  0  0
 11 12  1  0  0  0
 11 16  1  0  0  0
 12 18  2  0  0  0
 12 17  1  0  0  0
 13 14  1  0  0  0
 13 19  1  0  0  0
 13 20  2  0  0  0
 14 27  1  0  0  0
 14 42  1  0  0  0
 15 22  1  0  0  0
 15 43  1  0  0  0
 15 44  1  0  0  0
 16 21  1  0  0  0
 16 45  1  0  0  0
 16 46  1  0  0  0
 17 19  2  0  0  0
 17 47  1  0  0  0
 18 20  1  0  0  0
 18 48  1  0  0  0
 19 49  1  0  0  0
 20 50  1  0  0  0
 21 28  1  0  0  0
 21 29  2  0  0  0
 22 30  2  0  0  0
 22 31  1  0  0  0
 23 32  1  0  0  0
 23 33  1  0  0  0
 23 51  1  0  0  0
 24 28  2  0  0  0
 24 52  1  0  0  0
 25 29  1  0  0  0
 25 53  1  0  0  0
 26 27  1  0  0  0
 26 54  1  0  0  0
 26 55  1  0  0  0
 27 56  1  0  0  0
 27 57  1  0  0  0
 28 58  1  0  0  0
 29 59  1  0  0  0
 30 34  1  0  0  0
 30 60  1  0  0  0
 31 35  2  0  0  0
 31 61  1  0  0  0
 32 62  1  0  0  0
 32 63  1  0  0  0
 32 64  1  0  0  0
 33 65  1  0  0  0
 33 66  1  0  0  0
 33 67  1  0  0  0
 34 36  2  0  0  0
 34 68  1  0  0  0
 35 36  1  0  0  0
 35 69  1  0  0  0
 36 70  1  0  0  0
M  END
> <chembl_id>
CHEMBL61887

> <chembl_pref_name>
None

> <i_m_ct_stereo_status>
1

> <s_m_source_file>
sdf/inactives_sanitized.sdf

> <i_m_source_file_index>
248

> <i_lp_mmshare_version>
49012

> <i_f3d_flags>
0

> <s_epik_input>
W2NIXTFbY0hdW2NIXVtjSF1bY0hdYzFbQ0gyXU9DKD1PKVtOSF1bQ0BASF0oW0NIMl1bQ0hdKFtDSDNdKVtDSDNdKUMoPU8pW05IXVtDSDJdW0NIMl1bTkhdYyhbY0hdW2NIXTIpW2NIXVtjSF1jMk9bQ0gyXWMzW2NIXVtjSF1uW2NIXVtjSF0z

> <s_epik_cmdline>
J2VwaWtfcHl0aG9uJywgJy1waHQnLCAnMC41JywgJy1waCcsICc3LjUnLCAnLW50JywgJy1tYScsICcyMDAnLCAnLWltYWUnLCAnPGluZmlsZS5tYWU+JywgJy1vbWFlJywgJzxvdXRmaWxlLm1hZT4n

> <r_lp_tautomer_probability>
1

> <r_epik_Ionization_Penalty>
  0.0029

> <r_epik_Ionization_Penalty_Charging>
  0.0000

> <r_epik_Ionization_Penalty_Neutral>
  0.0029

> <r_epik_State_Penalty>
 -0.0000

> <r_epik_Charging_Adjusted_Penalty>
0

> <i_epik_Tot_Q>
0

> <i_epik_Tot_abs_Q>
0

> <s_epik_Chemistry_Notes>
This compound has an ester and may undergo hydrolysis at high or low pH.

> <s_lp_Force_Field>
OPLS3e

> <r_lp_Energy>
44.179203

> <b_lp_Chiralities_Consistent>
1

> <s_lp_Variant>
sdf/inactives_sanitized.sdf:248-1

$$$$
sdf/inactives_sanitized.sdf:249
                    3D
 Schrodinger Suite 2020-1.
 51 52  0  0  1  0            999 V2000
   -0.4526    0.1137   -0.1619 C   0  0  2  0  0  0
   -0.8514   -0.7615    1.0672 C   0  0  2  0  0  0
   -1.6737   -1.9083    0.4187 C   0  0  2  0  0  0
   -0.6926   -2.7890   -0.3490 C   0  0  0  0  0  0
   -0.2900   -2.0749   -1.4207 C   0  0  0  0  0  0
   -1.0134   -0.7290   -1.3467 C   0  0  1  0  0  0
   -2.3316   -1.2316   -0.7757 C   0  0  0  0  0  0
   -1.8594    0.1713    2.3875 S   0  0  0  0  0  0
    1.0455    0.3863   -0.2466 C   0  0  0  0  0  0
    1.5945    1.6027   -0.4147 C   0  0  0  0  0  0
    3.3785    1.8171   -0.4729 S   0  0  0  0  0  0
    3.6728    2.4088   -2.2450 C   0  0  0  0  0  0
    5.1722    2.6533   -2.4773 C   0  0  0  0  0  0
    5.4828    3.1169   -3.9106 C   0  0  0  0  0  0
    6.9802    3.3506   -4.1527 C   0  0  0  0  0  0
   -0.5782    1.2506    3.2782 C   0  0  0  0  0  0
   -0.4043    2.6130    2.5847 C   0  0  0  0  0  0
    0.8506    3.3659    3.0574 C   0  0  0  0  0  0
    1.0526    4.7037    2.3338 C   0  0  0  0  0  0
   -2.8351    1.0419    1.7218 O   0  0  0  0  0  0
   -2.3318   -0.8261    3.3537 O   0  0  0  0  0  0
    3.7137    2.9131    0.4423 O   0  0  0  0  0  0
    4.0188    0.5063   -0.3133 O   0  0  0  0  0  0
   -1.0062    1.0542   -0.1481 H   0  0  0  0  0  0
    0.0062   -1.1524    1.6177 H   0  0  0  0  0  0
   -2.3629   -2.4390    1.0765 H   0  0  0  0  0  0
   -0.3857   -3.7779   -0.0420 H   0  0  0  0  0  0
    0.4204   -2.3489   -2.1866 H   0  0  0  0  0  0
   -1.1154   -0.1972   -2.2934 H   0  0  0  0  0  0
   -2.8746   -1.9156   -1.4348 H   0  0  0  0  0  0
   -3.0168   -0.4286   -0.4979 H   0  0  0  0  0  0
    1.6848   -0.4802   -0.1573 H   0  0  0  0  0  0
    1.0046    2.5016   -0.5148 H   0  0  0  0  0  0
    3.2853    1.6419   -2.9163 H   0  0  0  0  0  0
    3.0928    3.3208   -2.3893 H   0  0  0  0  0  0
    5.5308    3.4000   -1.7673 H   0  0  0  0  0  0
    5.7248    1.7369   -2.2646 H   0  0  0  0  0  0
    5.1178    2.3754   -4.6227 H   0  0  0  0  0  0
    4.9390    4.0385   -4.1232 H   0  0  0  0  0  0
    7.1626    3.6740   -5.1779 H   0  0  0  0  0  0
    7.5556    2.4392   -3.9867 H   0  0  0  0  0  0
    7.3732    4.1209   -3.4882 H   0  0  0  0  0  0
   -0.9347    1.3895    4.2990 H   0  0  0  0  0  0
    0.3541    0.6874    3.3241 H   0  0  0  0  0  0
   -0.3513    2.4778    1.5074 H   0  0  0  0  0  0
   -1.2902    3.2239    2.7644 H   0  0  0  0  0  0
    0.7902    3.5425    4.1321 H   0  0  0  0  0  0
    1.7323    2.7430    2.8976 H   0  0  0  0  0  0
    1.9496    5.2083    2.6939 H   0  0  0  0  0  0
    0.2072    5.3734    2.4960 H   0  0  0  0  0  0
    1.1656    4.5589    1.2587 H   0  0  0  0  0  0
  1  2  1  0  0  0
  1  6  1  0  0  0
  1  9  1  0  0  0
  1 24  1  0  0  0
  2  3  1  0  0  0
  2  8  1  0  0  0
  2 25  1  0  0  0
  3  4  1  0  0  0
  3  7  1  0  0  0
  3 26  1  0  0  0
  4  5  2  0  0  0
  4 27  1  0  0  0
  5  6  1  0  0  0
  5 28  1  0  0  0
  6  7  1  0  0  0
  6 29  1  0  0  0
  7 30  1  0  0  0
  7 31  1  0  0  0
  8 16  1  0  0  0
  8 20  2  0  0  0
  8 21  2  0  0  0
  9 10  2  0  0  0
  9 32  1  0  0  0
 10 11  1  0  0  0
 10 33  1  0  0  0
 11 12  1  0  0  0
 11 22  2  0  0  0
 11 23  2  0  0  0
 12 13  1  0  0  0
 12 34  1  0  0  0
 12 35  1  0  0  0
 13 14  1  0  0  0
 13 36  1  0  0  0
 13 37  1  0  0  0
 14 15  1  0  0  0
 14 38  1  0  0  0
 14 39  1  0  0  0
 15 40  1  0  0  0
 15 41  1  0  0  0
 15 42  1  0  0  0
 16 17  1  0  0  0
 16 43  1  0  0  0
 16 44  1  0  0  0
 17 18  1  0  0  0
 17 45  1  0  0  0
 17 46  1  0  0  0
 18 19  1  0  0  0
 18 47  1  0  0  0
 18 48  1  0  0  0
 19 49  1  0  0  0
 19 50  1  0  0  0
 19 51  1  0  0  0
M  END
> <chembl_id>
CHEMBL2316311

> <chembl_pref_name>
None

> <s_m_source_file>
sdf/inactives_sanitized.sdf

> <i_m_source_file_index>
249

> <i_lp_mmshare_version>
49012

> <i_m_ct_stereo_status>
1

> <i_f3d_flags>
0

> <s_epik_input>
W0NIM11bQ0gyXVtDSDJdW0NIMl1TKD1PKSg9TylbQ0BASF0oW0NASF0xMilbQ0BIXShbQ0BIXShbQ0gyXTIpW0NIXT1bQ0hdMSkvW0NIXT1bQ0hdL1MoPU8pKD1PKVtDSDJdW0NIMl1bQ0gyXVtDSDNd

> <s_epik_cmdline>
J2VwaWtfcHl0aG9uJywgJy1waHQnLCAnMC41JywgJy1waCcsICc3LjUnLCAnLW50JywgJy1tYScsICcyMDAnLCAnLWltYWUnLCAnPGluZmlsZS5tYWU+JywgJy1vbWFlJywgJzxvdXRmaWxlLm1hZT4n

> <r_lp_tautomer_probability>
1

> <r_epik_Ionization_Penalty>
  0.0000

> <r_epik_Ionization_Penalty_Charging>
  0.0000

> <r_epik_Ionization_Penalty_Neutral>
  0.0000

> <r_epik_State_Penalty>
 -0.0000

> <r_epik_Charging_Adjusted_Penalty>
0

> <i_epik_Tot_Q>
0

> <i_epik_Tot_abs_Q>
0

> <s_lp_Force_Field>
OPLS3e

> <r_lp_Energy>
14.22354

> <b_lp_Chiralities_Consistent>
1

> <s_lp_Variant>
sdf/inactives_sanitized.sdf:249-1

$$$$
sdf/inactives_sanitized.sdf:250
                    3D
 Schrodinger Suite 2020-1.
 71 74  0  0  1  0            999 V2000
   -1.9616   -2.4728   -4.1538 C   0  0  0  0  0  0
   -1.3006   -2.0094   -3.0618 O   0  0  0  0  0  0
   -1.8120   -0.7788   -2.7703 C   0  0  0  0  0  0
   -2.8065   -0.4670   -3.6917 C   0  0  0  0  0  0
   -2.9010   -1.5461   -4.5721 C   0  0  0  0  0  0
   -1.3064   -0.0290   -1.6501 C   0  0  0  0  0  0
   -0.3266   -0.6422   -0.9601 N   0  0  0  0  0  0
   -1.7629    1.0812   -1.3722 O   0  0  0  0  0  0
    0.3613   -0.1033    0.2171 C   0  0  2  0  0  0
    1.8812   -0.1444   -0.0325 C   0  0  0  0  0  0
    2.5294    1.0314    0.0576 N   0  0  0  0  0  0
    2.4342   -1.2211   -0.2665 O   0  0  0  0  0  0
    3.9758    1.2263   -0.1182 C   0  0  2  0  0  0
    4.6909    1.2126    1.2504 C   0  0  0  0  0  0
    6.2143    1.0988    1.2111 C   0  0  0  0  0  0
    4.2588    2.5061   -0.9370 C   0  0  0  0  0  0
    6.8879    2.4171    1.0662 N   0  0  3  0  0  0
    5.7455    2.8559   -1.1912 C   0  0  0  0  0  0
    6.5594    3.4199    0.0043 C   0  0  1  0  0  0
    5.9121    4.6812    0.6129 C   0  0  0  0  0  0
    4.0941    1.2624    2.3278 O   0  0  0  0  0  0
    8.7847    1.5872    2.7015 O   0  0  0  0  0  0
    8.9360    3.9430    1.7479 O   0  0  0  0  0  0
    8.1333    2.8291    2.2676 S   0  0  0  0  0  0
    7.2172    3.4436    3.6785 C   0  0  0  0  0  0
    6.4732    2.5151    4.3366 N   0  0  0  0  0  0
    5.7390    2.9319    5.3993 C   0  0  0  0  0  0
    5.7191    4.2584    5.8353 C   0  0  0  0  0  0
    6.4889    5.1978    5.1456 C   0  0  0  0  0  0
    7.2517    4.7922    4.0486 C   0  0  0  0  0  0
   -0.0100   -0.8643    1.5153 C   0  0  0  0  0  0
   -1.5003   -0.7396    1.9032 C   0  0  0  0  0  0
   -1.8707   -1.4758    3.2109 C   0  0  0  0  0  0
   -1.8192   -3.0181    3.0945 C   0  0  0  0  0  0
   -3.2419   -3.5224    3.3557 C   0  0  0  0  0  0
   -3.8607   -2.4564    4.2542 C   0  0  0  0  0  0
   -3.2958   -1.1466    3.7034 C   0  0  0  0  0  0
   -1.6678   -3.4482   -4.5127 H   0  0  0  0  0  0
   -3.3949    0.4386   -3.7212 H   0  0  0  0  0  0
   -3.5731   -1.6396   -5.4123 H   0  0  0  0  0  0
   -0.0062   -1.5482   -1.2704 H   0  0  0  0  0  0
    0.0707    0.9401    0.3622 H   0  0  0  0  0  0
    1.9927    1.8599    0.2708 H   0  0  0  0  0  0
    4.3875    0.3876   -0.6846 H   0  0  0  0  0  0
    6.5573    0.6224    2.1296 H   0  0  0  0  0  0
    6.5462    0.4438    0.4055 H   0  0  0  0  0  0
    3.7800    2.3872   -1.9105 H   0  0  0  0  0  0
    3.7528    3.3593   -0.4827 H   0  0  0  0  0  0
    5.7764    3.6000   -1.9887 H   0  0  0  0  0  0
    6.2577    1.9852   -1.6036 H   0  0  0  0  0  0
    7.5176    3.7252   -0.4185 H   0  0  0  0  0  0
    5.5972    5.3782   -0.1643 H   0  0  0  0  0  0
    6.6085    5.2207    1.2534 H   0  0  0  0  0  0
    5.0367    4.4351    1.2153 H   0  0  0  0  0  0
    5.1558    2.1767    5.9051 H   0  0  0  0  0  0
    5.1219    4.5518    6.6861 H   0  0  0  0  0  0
    6.4937    6.2318    5.4574 H   0  0  0  0  0  0
    7.8476    5.5097    3.5041 H   0  0  0  0  0  0
    0.2474   -1.9192    1.4054 H   0  0  0  0  0  0
    0.5921   -0.4838    2.3429 H   0  0  0  0  0  0
   -1.7452    0.3183    2.0109 H   0  0  0  0  0  0
   -2.1311   -1.1127    1.0949 H   0  0  0  0  0  0
   -1.1694   -1.1579    3.9851 H   0  0  0  0  0  0
   -1.4653   -3.3639    2.1224 H   0  0  0  0  0  0
   -1.1346   -3.4236    3.8410 H   0  0  0  0  0  0
   -3.7953   -3.5867    2.4172 H   0  0  0  0  0  0
   -3.2546   -4.5117    3.8145 H   0  0  0  0  0  0
   -4.9509   -2.4796    4.2370 H   0  0  0  0  0  0
   -3.5413   -2.6019    5.2876 H   0  0  0  0  0  0
   -3.9215   -0.7869    2.8843 H   0  0  0  0  0  0
   -3.2913   -0.3685    4.4680 H   0  0  0  0  0  0
  1  5  2  0  0  0
  1  2  1  0  0  0
  1 38  1  0  0  0
  2  3  1  0  0  0
  3  6  1  0  0  0
  3  4  2  0  0  0
  4  5  1  0  0  0
  4 39  1  0  0  0
  5 40  1  0  0  0
  6  7  1  0  0  0
  6  8  2  0  0  0
  7  9  1  0  0  0
  7 41  1  0  0  0
  9 10  1  0  0  0
  9 31  1  0  0  0
  9 42  1  0  0  0
 10 11  1  0  0  0
 10 12  2  0  0  0
 11 13  1  0  0  0
 11 43  1  0  0  0
 13 14  1  0  0  0
 13 16  1  0  0  0
 13 44  1  0  0  0
 14 21  2  0  0  0
 14 15  1  0  0  0
 15 17  1  0  0  0
 15 45  1  0  0  0
 15 46  1  0  0  0
 16 18  1  0  0  0
 16 47  1  0  0  0
 16 48  1  0  0  0
 17 19  1  0  0  0
 17 24  1  0  0  0
 18 19  1  0  0  0
 18 49  1  0  0  0
 18 50  1  0  0  0
 19 20  1  0  0  0
 19 51  1  0  0  0
 20 52  1  0  0  0
 20 53  1  0  0  0
 20 54  1  0  0  0
 22 24  2  0  0  0
 23 24  2  0  0  0
 24 25  1  0  0  0
 25 26  2  0  0  0
 25 30  1  0  0  0
 26 27  1  0  0  0
 27 28  2  0  0  0
 27 55  1  0  0  0
 28 29  1  0  0  0
 28 56  1  0  0  0
 29 30  2  0  0  0
 29 57  1  0  0  0
 30 58  1  0  0  0
 31 32  1  0  0  0
 31 59  1  0  0  0
 31 60  1  0  0  0
 32 33  1  0  0  0
 32 61  1  0  0  0
 32 62  1  0  0  0
 33 34  1  0  0  0
 33 37  1  0  0  0
 33 63  1  0  0  0
 34 35  1  0  0  0
 34 64  1  0  0  0
 34 65  1  0  0  0
 35 36  1  0  0  0
 35 66  1  0  0  0
 35 67  1  0  0  0
 36 37  1  0  0  0
 36 68  1  0  0  0
 36 69  1  0  0  0
 37 70  1  0  0  0
 37 71  1  0  0  0
M  END
> <chembl_id>
CHEMBL1807697

> <chembl_pref_name>
None

> <i_m_ct_stereo_status>
1

> <s_m_source_file>
sdf/inactives_sanitized.sdf

> <i_m_source_file_index>
250

> <i_lp_mmshare_version>
49012

> <i_f3d_flags>
0

> <s_epik_input>
W2NIXTFbY0hdW2NIXW9jMUMoPU8pW05IXVtDQEBIXShbQ0gyXVtDSDJdW0NIXTJbQ0gyXVtDSDJdW0NIMl1bQ0gyXTIpQyg9TylbTkhdW0NAQEhdM0MoPU8pW0NIMl1OKFtDQEhdKFtDSDNdKVtDSDJdW0NIMl0zKVMoPU8pKD1PKWM0bltjSF1bY0hdW2NIXVtjSF00

> <s_epik_cmdline>
J2VwaWtfcHl0aG9uJywgJy1waHQnLCAnMC41JywgJy1waCcsICc3LjUnLCAnLW50JywgJy1tYScsICcyMDAnLCAnLWltYWUnLCAnPGluZmlsZS5tYWU+JywgJy1vbWFlJywgJzxvdXRmaWxlLm1hZT4n

> <r_lp_tautomer_probability>
1

> <r_epik_Ionization_Penalty>
  0.0000

> <r_epik_Ionization_Penalty_Charging>
  0.0000

> <r_epik_Ionization_Penalty_Neutral>
  0.0000

> <r_epik_State_Penalty>
 -0.0000

> <r_epik_Charging_Adjusted_Penalty>
0

> <i_epik_Tot_Q>
0

> <i_epik_Tot_abs_Q>
0

> <s_lp_Force_Field>
OPLS3e

> <r_lp_Energy>
38.438156

> <b_lp_Chiralities_Consistent>
1

> <s_lp_Variant>
sdf/inactives_sanitized.sdf:250-1

$$$$
sdf/inactives_sanitized.sdf:251
                    3D
 Schrodinger Suite 2020-1.
 82 84  0  0  1  0            999 V2000
   -1.4176    6.1356    0.6276 C   0  0  0  0  0  0
   -2.6105    5.6329    0.1466 C   0  0  0  0  0  0
   -2.8143    4.4747    0.8473 N   0  0  0  0  0  0
   -3.8785    3.4937    0.6600 C   0  0  0  0  0  0
   -3.5749    2.5047   -0.5070 C   0  0  2  0  0  0
   -4.6626    1.3990   -0.7360 C   0  0  0  0  0  0
   -4.3203    0.5991   -2.0169 C   0  0  0  0  0  0
   -6.0570    2.0386   -0.9471 C   0  0  0  0  0  0
   -2.2952    1.8832   -0.3051 O   0  0  0  0  0  0
   -1.1787    2.2867   -0.9560 C   0  0  0  0  0  0
   -0.0742    1.6995   -0.3444 N   0  0  0  0  0  0
    1.3099    2.0532   -0.7272 C   0  0  2  0  0  0
    1.6491    1.5801   -2.1428 C   0  0  0  0  0  0
   -4.7421    0.4141    0.4576 C   0  0  0  0  0  0
   -1.1620    3.0779   -1.9016 O   0  0  0  0  0  0
    2.4528    2.1957   -2.8436 O   0  0  0  0  0  0
    1.0596    0.2552   -2.6587 C   0  0  0  0  0  0
    0.0117    0.5665   -3.6326 N   0  0  0  0  0  0
    2.3379    1.4453    0.2611 C   0  0  0  0  0  0
   -0.9671    5.2154    1.5913 C   0  0  0  0  0  0
   -1.8237    4.2197    1.7154 N   0  0  0  0  0  0
    2.1848    1.9709    1.7048 C   0  0  0  0  0  0
    3.2851    1.5001    2.6748 C   0  0  0  0  0  0
    3.3040   -0.0161    2.9220 C   0  0  0  0  0  0
    0.1164    0.4858   -4.9757 C   0  0  0  0  0  0
    1.1323    0.0504   -5.5247 O   0  0  0  0  0  0
   -0.9201    1.0389   -5.6671 N   0  0  0  0  0  0
   -2.2817    1.1569   -5.1064 C   0  0  0  0  0  0
   -3.0540   -0.1095   -5.5427 C   0  0  0  0  0  0
   -3.0463   -0.2174   -6.9674 O   0  0  0  0  0  0
   -1.7354   -0.2763   -7.5338 C   0  0  0  0  0  0
   -0.9218    0.9809   -7.1402 C   0  0  0  0  0  0
    0.2984    5.2651    2.3906 C   0  0  0  0  0  0
    0.4327    4.5356    3.5783 C   0  0  0  0  0  0
    1.6233    4.5751    4.2982 C   0  0  0  0  0  0
    2.6973    5.3446    3.8419 C   0  0  0  0  0  0
    2.5649    6.0764    2.6575 C   0  0  0  0  0  0
    1.3731    6.0380    1.9390 C   0  0  0  0  0  0
    4.0070    5.3587    4.6293 C   0  0  0  0  0  0
    5.0294    5.8073    3.8982 F   0  0  0  0  0  0
    3.8690    6.1519    5.6914 F   0  0  0  0  0  0
    4.3144    4.1310    5.0519 F   0  0  0  0  0  0
   -0.9264    7.0437    0.3104 H   0  0  0  0  0  0
   -3.3026    5.9695   -0.6116 H   0  0  0  0  0  0
   -4.7965    4.0493    0.4685 H   0  0  0  0  0  0
   -4.0320    2.9637    1.6011 H   0  0  0  0  0  0
   -3.5516    3.0995   -1.4228 H   0  0  0  0  0  0
   -5.0581   -0.1795   -2.2166 H   0  0  0  0  0  0
   -3.3494    0.1069   -1.9471 H   0  0  0  0  0  0
   -4.2959    1.2486   -2.8921 H   0  0  0  0  0  0
   -6.0355    2.7966   -1.7312 H   0  0  0  0  0  0
   -6.4315    2.5145   -0.0403 H   0  0  0  0  0  0
   -6.8005    1.2945   -1.2370 H   0  0  0  0  0  0
   -0.2082    1.3488    0.5928 H   0  0  0  0  0  0
    1.4166    3.1384   -0.6555 H   0  0  0  0  0  0
   -5.4784   -0.3706    0.2776 H   0  0  0  0  0  0
   -5.0322    0.9134    1.3819 H   0  0  0  0  0  0
   -3.7873   -0.0807    0.6401 H   0  0  0  0  0  0
    1.8596   -0.3460   -3.0951 H   0  0  0  0  0  0
    0.6429   -0.3489   -1.8528 H   0  0  0  0  0  0
   -0.8442    0.9396   -3.2483 H   0  0  0  0  0  0
    3.3525    1.6699   -0.0755 H   0  0  0  0  0  0
    2.2433    0.3576    0.2654 H   0  0  0  0  0  0
    2.2002    3.0606    1.6806 H   0  0  0  0  0  0
    1.2095    1.6909    2.1057 H   0  0  0  0  0  0
    4.2608    1.8219    2.3083 H   0  0  0  0  0  0
    3.1464    2.0051    3.6315 H   0  0  0  0  0  0
    4.0547   -0.2761    3.6686 H   0  0  0  0  0  0
    3.5441   -0.5688    2.0137 H   0  0  0  0  0  0
    2.3394   -0.3699    3.2872 H   0  0  0  0  0  0
   -2.3294    1.4192   -4.0497 H   0  0  0  0  0  0
   -2.7083    2.0257   -5.6093 H   0  0  0  0  0  0
   -2.6243   -1.0063   -5.0920 H   0  0  0  0  0  0
   -4.0832   -0.0596   -5.1874 H   0  0  0  0  0  0
   -1.2285   -1.1878   -7.2111 H   0  0  0  0  0  0
   -1.8131   -0.3437   -8.6188 H   0  0  0  0  0  0
   -1.4638    1.8752   -7.4502 H   0  0  0  0  0  0
    0.0622    1.0807   -7.6008 H   0  0  0  0  0  0
   -0.3823    3.9303    3.9479 H   0  0  0  0  0  0
    1.7099    4.0020    5.2100 H   0  0  0  0  0  0
    3.3819    6.6770    2.2849 H   0  0  0  0  0  0
    1.2976    6.6052    1.0228 H   0  0  0  0  0  0
  1  2  2  0  0  0
  1 20  1  0  0  0
  1 43  1  0  0  0
  2  3  1  0  0  0
  2 44  1  0  0  0
  3 21  1  0  0  0
  3  4  1  0  0  0
  4  5  1  0  0  0
  4 45  1  0  0  0
  4 46  1  0  0  0
  5  6  1  0  0  0
  5  9  1  0  0  0
  5 47  1  0  0  0
  6 14  1  0  0  0
  6  7  1  0  0  0
  6  8  1  0  0  0
  7 48  1  0  0  0
  7 49  1  0  0  0
  7 50  1  0  0  0
  8 51  1  0  0  0
  8 52  1  0  0  0
  8 53  1  0  0  0
  9 10  1  0  0  0
 10 11  1  0  0  0
 10 15  2  0  0  0
 11 12  1  0  0  0
 11 54  1  0  0  0
 12 13  1  0  0  0
 12 19  1  0  0  0
 12 55  1  0  0  0
 13 16  2  0  0  0
 13 17  1  0  0  0
 14 56  1  0  0  0
 14 57  1  0  0  0
 14 58  1  0  0  0
 17 18  1  0  0  0
 17 59  1  0  0  0
 17 60  1  0  0  0
 18 25  1  0  0  0
 18 61  1  0  0  0
 19 22  1  0  0  0
 19 62  1  0  0  0
 19 63  1  0  0  0
 20 21  2  0  0  0
 20 33  1  0  0  0
 22 23  1  0  0  0
 22 64  1  0  0  0
 22 65  1  0  0  0
 23 24  1  0  0  0
 23 66  1  0  0  0
 23 67  1  0  0  0
 24 68  1  0  0  0
 24 69  1  0  0  0
 24 70  1  0  0  0
 25 26  2  0  0  0
 25 27  1  0  0  0
 27 28  1  0  0  0
 27 32  1  0  0  0
 28 29  1  0  0  0
 28 71  1  0  0  0
 28 72  1  0  0  0
 29 30  1  0  0  0
 29 73  1  0  0  0
 29 74  1  0  0  0
 30 31  1  0  0  0
 31 32  1  0  0  0
 31 75  1  0  0  0
 31 76  1  0  0  0
 32 77  1  0  0  0
 32 78  1  0  0  0
 33 34  2  0  0  0
 33 38  1  0  0  0
 34 35  1  0  0  0
 34 79  1  0  0  0
 35 36  2  0  0  0
 35 80  1  0  0  0
 36 37  1  0  0  0
 36 39  1  0  0  0
 37 38  2  0  0  0
 37 81  1  0  0  0
 38 82  1  0  0  0
 39 40  1  0  0  0
 39 41  1  0  0  0
 39 42  1  0  0  0
M  END
> <chembl_id>
CHEMBL394698

> <chembl_pref_name>
None

> <i_m_ct_stereo_status>
1

> <s_m_source_file>
sdf/inactives_sanitized.sdf

> <i_m_source_file_index>
251

> <i_lp_mmshare_version>
49012

> <i_f3d_flags>
0

> <s_epik_input>
W2NIXTFbY0hdYyhDKEYpKEYpRilbY0hdW2NIXWMxLWMobjIpW2NIXVtjSF1uMltDSDJdW0NASF0oQyhbQ0gzXSkoW0NIM10pW0NIM10pT0MoPU8pW05IXVtDQEBIXShbQ0gyXVtDSDJdW0NIMl1bQ0gzXSlDKD1PKVtDSDJdW05IXUMoPU8pTjNbQ0gyXVtDSDJdT1tDSDJdW0NIMl0z

> <s_epik_cmdline>
J2VwaWtfcHl0aG9uJywgJy1waHQnLCAnMC41JywgJy1waCcsICc3LjUnLCAnLW50JywgJy1tYScsICcyMDAnLCAnLWltYWUnLCAnPGluZmlsZS5tYWU+JywgJy1vbWFlJywgJzxvdXRmaWxlLm1hZT4n

> <r_lp_tautomer_probability>
1

> <r_epik_Ionization_Penalty>
  0.0001

> <r_epik_Ionization_Penalty_Charging>
  0.0000

> <r_epik_Ionization_Penalty_Neutral>
  0.0001

> <r_epik_State_Penalty>
 -0.0000

> <r_epik_Charging_Adjusted_Penalty>
0

> <i_epik_Tot_Q>
0

> <i_epik_Tot_abs_Q>
0

> <s_epik_Chemistry_Notes>
This compound has an ester and may undergo hydrolysis at high or low pH.

> <s_lp_Force_Field>
OPLS3e

> <r_lp_Energy>
37.594879

> <b_lp_Chiralities_Consistent>
1

> <s_lp_Variant>
sdf/inactives_sanitized.sdf:251-1

$$$$
sdf/inactives_sanitized.sdf:252
                    3D
 Schrodinger Suite 2020-1.
 61 61  0  0  1  0            999 V2000
    3.1493   -0.4899   -0.3538 C   0  0  0  0  0  0
   -0.1605    0.7814   -0.2710 C   0  0  0  0  0  0
    3.3454    0.2817   -1.7286 C   0  0  0  0  0  0
    0.8084   -0.2027   -0.1290 N   0  0  0  0  0  0
    2.0725    0.0690    0.5751 C   0  0  1  0  0  0
   -1.2062    0.2574   -0.9463 O   0  0  0  0  0  0
   -2.3598    1.0318   -1.2975 C   0  0  0  0  0  0
    3.9958   -0.4589   -2.6457 N   0  0  0  0  0  0
    3.8555   -1.4657   -0.0808 O   0  0  0  0  0  0
   -0.0949    1.9421    0.1405 O   0  0  0  0  0  0
    2.9142    1.4241   -1.8935 O   0  0  0  0  0  0
    0.6996    0.4849   -6.4528 N   0  0  0  0  0  0
   -3.5421    0.6742   -0.3434 C   0  0  0  0  0  0
   -2.6276    0.8287   -2.8203 C   0  0  0  0  0  0
    4.2494   -0.0435   -4.0250 C   0  0  0  0  0  0
    2.9921    0.1455   -4.8678 C   0  0  0  0  0  0
    2.1118   -0.5731    1.9883 C   0  0  0  0  0  0
    1.4849    1.5407   -6.1192 C   0  0  0  0  0  0
    1.0604   -0.7408   -5.9943 C   0  0  0  0  0  0
   -1.4175    1.2613   -3.6768 C   0  0  0  0  0  0
   -3.8969    1.5534   -3.3141 C   0  0  0  0  0  0
   -3.2536    1.0628    1.1207 C   0  0  0  0  0  0
   -3.9873   -0.8000   -0.4384 C   0  0  0  0  0  0
    2.6345    1.4148   -5.3371 C   0  0  0  0  0  0
    2.1934   -0.9534   -5.2068 C   0  0  0  0  0  0
    1.0580    0.0003    2.9579 C   0  0  0  0  0  0
    1.1722   -0.5782    4.3787 C   0  0  0  0  0  0
    0.1110   -0.0200    5.3366 C   0  0  0  0  0  0
    0.5915   -1.1532   -0.3907 H   0  0  0  0  0  0
    2.2564    1.1399    0.6963 H   0  0  0  0  0  0
   -2.1544    2.0969   -1.1710 H   0  0  0  0  0  0
    4.2985   -1.3878   -2.3901 H   0  0  0  0  0  0
   -4.3947    1.2870   -0.6355 H   0  0  0  0  0  0
   -2.7730   -0.2370   -3.0027 H   0  0  0  0  0  0
    4.8664    0.8573   -4.0344 H   0  0  0  0  0  0
    4.8550   -0.8200   -4.4935 H   0  0  0  0  0  0
    1.9583   -1.6517    1.9109 H   0  0  0  0  0  0
    3.1026   -0.4274    2.4235 H   0  0  0  0  0  0
    1.1780    2.5063   -6.4931 H   0  0  0  0  0  0
    0.4213   -1.5658   -6.2723 H   0  0  0  0  0  0
   -1.1795    2.3153   -3.5276 H   0  0  0  0  0  0
   -1.6117    1.1140   -4.7398 H   0  0  0  0  0  0
   -0.5230    0.6851   -3.4367 H   0  0  0  0  0  0
   -3.8548    2.6219   -3.0988 H   0  0  0  0  0  0
   -4.7991    1.1531   -2.8519 H   0  0  0  0  0  0
   -4.0246    1.4390   -4.3914 H   0  0  0  0  0  0
   -2.4562    0.4563    1.5518 H   0  0  0  0  0  0
   -4.1374    0.9298    1.7454 H   0  0  0  0  0  0
   -2.9550    2.1086    1.2007 H   0  0  0  0  0  0
   -3.1815   -1.4807   -0.1616 H   0  0  0  0  0  0
   -4.3103   -1.0594   -1.4464 H   0  0  0  0  0  0
   -4.8291   -1.0006    0.2253 H   0  0  0  0  0  0
    3.2282    2.2849   -5.0973 H   0  0  0  0  0  0
    2.4431   -1.9478   -4.8667 H   0  0  0  0  0  0
    1.1584    1.0861    3.0016 H   0  0  0  0  0  0
    0.0572   -0.2019    2.5733 H   0  0  0  0  0  0
    1.0820   -1.6648    4.3404 H   0  0  0  0  0  0
    2.1638   -0.3677    4.7821 H   0  0  0  0  0  0
    0.2209   -0.4505    6.3322 H   0  0  0  0  0  0
   -0.8966   -0.2477    4.9870 H   0  0  0  0  0  0
    0.1949    1.0631    5.4334 H   0  0  0  0  0  0
  1  3  1  0  0  0
  1  5  1  0  0  0
  1  9  2  0  0  0
  2  4  1  0  0  0
  2  6  1  0  0  0
  2 10  2  0  0  0
  3  8  1  0  0  0
  3 11  2  0  0  0
  4  5  1  0  0  0
  4 29  1  0  0  0
  5 17  1  0  0  0
  5 30  1  0  0  0
  6  7  1  0  0  0
  7 13  1  0  0  0
  7 14  1  0  0  0
  7 31  1  0  0  0
  8 15  1  0  0  0
  8 32  1  0  0  0
 12 19  2  0  0  0
 12 18  1  0  0  0
 13 22  1  0  0  0
 13 23  1  0  0  0
 13 33  1  0  0  0
 14 20  1  0  0  0
 14 21  1  0  0  0
 14 34  1  0  0  0
 15 16  1  0  0  0
 15 35  1  0  0  0
 15 36  1  0  0  0
 16 24  1  0  0  0
 16 25  2  0  0  0
 17 26  1  0  0  0
 17 37  1  0  0  0
 17 38  1  0  0  0
 18 24  2  0  0  0
 18 39  1  0  0  0
 19 25  1  0  0  0
 19 40  1  0  0  0
 20 41  1  0  0  0
 20 42  1  0  0  0
 20 43  1  0  0  0
 21 44  1  0  0  0
 21 45  1  0  0  0
 21 46  1  0  0  0
 22 47  1  0  0  0
 22 48  1  0  0  0
 22 49  1  0  0  0
 23 50  1  0  0  0
 23 51  1  0  0  0
 23 52  1  0  0  0
 24 53  1  0  0  0
 25 54  1  0  0  0
 26 27  1  0  0  0
 26 55  1  0  0  0
 26 56  1  0  0  0
 27 28  1  0  0  0
 27 57  1  0  0  0
 27 58  1  0  0  0
 28 59  1  0  0  0
 28 60  1  0  0  0
 28 61  1  0  0  0
M  END
> <chembl_id>
CHEMBL87332

> <chembl_pref_name>
None

> <i_m_ct_stereo_status>
1

> <s_m_source_file>
sdf/inactives_sanitized.sdf

> <i_m_source_file_index>
252

> <i_lp_mmshare_version>
49012

> <i_f3d_flags>
0

> <s_epik_input>
W0NIM11bQ0hdKFtDSDNdKVtDSF0oW0NIXShbQ0gzXSlbQ0gzXSlPQyg9TylbTkhdW0NAQEhdKFtDSDJdW0NIMl1bQ0gyXVtDSDNdKUMoPU8pQyg9TylbTkhdW0NIMl1jMVtjSF1bY0hdbltjSF1bY0hdMQ==

> <s_epik_cmdline>
J2VwaWtfcHl0aG9uJywgJy1waHQnLCAnMC41JywgJy1waCcsICc3LjUnLCAnLW50JywgJy1tYScsICcyMDAnLCAnLWltYWUnLCAnPGluZmlsZS5tYWU+JywgJy1vbWFlJywgJzxvdXRmaWxlLm1hZT4n

> <r_lp_tautomer_probability>
1

> <r_epik_Ionization_Penalty>
  0.0016

> <r_epik_Ionization_Penalty_Charging>
  0.0000

> <r_epik_Ionization_Penalty_Neutral>
  0.0016

> <r_epik_State_Penalty>
 -0.0000

> <r_epik_Charging_Adjusted_Penalty>
0

> <i_epik_Tot_Q>
0

> <i_epik_Tot_abs_Q>
0

> <s_epik_Chemistry_Notes>
This compound has an ester and may undergo hydrolysis at high or low pH.

> <s_lp_Force_Field>
OPLS3e

> <r_lp_Energy>
29.848312

> <b_lp_Chiralities_Consistent>
1

> <s_lp_Variant>
sdf/inactives_sanitized.sdf:252-1

$$$$
sdf/inactives_sanitized.sdf:253
                    3D
 Schrodinger Suite 2020-1.
 64 67  0  0  1  0            999 V2000
    6.4785    0.3118    5.8224 N   0  0  0  0  0  0
   -0.1694   -0.0785   -0.1601 C   0  0  1  0  0  0
   -0.8127   -0.9433   -1.2703 C   0  0  0  0  0  0
    1.3687   -0.0487   -0.2450 C   0  0  0  0  0  0
    0.0779   -3.6207   -4.0083 N   0  0  0  0  0  0
    2.1120   -0.0389    0.9420 C   0  0  0  0  0  0
    7.4520    2.6449    7.3705 N   0  3  0  0  0  0
    3.5110    0.0595    0.9400 C   0  0  0  0  0  0
    5.7394    0.2575    4.6394 C   0  0  0  0  0  0
   -0.6189   -3.4488   -3.1006 C   0  0  0  0  0  0
    4.2784    0.1167    2.2208 C   0  0  0  0  0  0
   -0.7849    1.3482   -0.0957 C   0  0  0  0  0  0
    7.8910    0.7394    5.8049 C   0  0  0  0  0  0
    5.8939    0.7022    7.1196 C   0  0  0  0  0  0
   -1.1416   -0.4408   -2.3465 O   0  0  0  0  0  0
    4.4623    0.8266    4.5358 C   0  0  0  0  0  0
    6.2667   -0.3931    3.5168 C   0  0  0  0  0  0
    5.5496   -0.4590    2.3256 C   0  0  0  0  0  0
    3.7451    0.7576    3.3452 C   0  0  0  0  0  0
   -0.9719   -2.2512   -1.0011 N   0  0  0  0  0  0
    5.9702    2.2225    7.3890 C   0  0  0  0  0  0
    8.0590    2.2619    6.0065 C   0  0  0  0  0  0
   -0.3043    2.1704    1.0963 C   0  0  0  0  0  0
   -1.5054   -3.2305   -1.9439 C   0  0  0  0  0  0
    2.0526    0.0516   -1.4650 C   0  0  0  0  0  0
    7.5924    4.1580    7.6250 C   0  0  0  0  0  0
    4.1642    0.1257   -0.2986 C   0  0  0  0  0  0
    3.4428    0.1242   -1.4906 C   0  0  0  0  0  0
    0.6786    3.1494    0.9234 C   0  0  0  0  0  0
   -0.8313    1.9244    2.3673 C   0  0  0  0  0  0
   -0.3723    2.6506    3.4630 C   0  0  0  0  0  0
    1.1373    3.8751    2.0197 C   0  0  0  0  0  0
    0.6103    3.6220    3.2844 C   0  0  0  0  0  0
   -0.4286   -0.5730    0.7791 H   0  0  0  0  0  0
    1.5843   -0.0954    1.8832 H   0  0  0  0  0  0
   -0.5843    1.8962   -1.0188 H   0  0  0  0  0  0
   -1.8731    1.2857   -0.0296 H   0  0  0  0  0  0
    8.4330    0.2010    6.5845 H   0  0  0  0  0  0
    8.3732    0.4568    4.8695 H   0  0  0  0  0  0
    4.8598    0.3618    7.1833 H   0  0  0  0  0  0
    6.4182    0.1663    7.9129 H   0  0  0  0  0  0
    4.0081    1.3411    5.3688 H   0  0  0  0  0  0
    7.2363   -0.8672    3.5582 H   0  0  0  0  0  0
    5.9887   -0.9762    1.4849 H   0  0  0  0  0  0
    2.7721    1.2250    3.3009 H   0  0  0  0  0  0
   -0.6298   -2.6121   -0.1225 H   0  0  0  0  0  0
    5.5902    2.4750    8.3798 H   0  0  0  0  0  0
    5.4463    2.8165    6.6375 H   0  0  0  0  0  0
    9.1107    2.5492    6.0460 H   0  0  0  0  0  0
    7.5511    2.8472    5.2371 H   0  0  0  0  0  0
   -2.4899   -2.9271   -2.3038 H   0  0  0  0  0  0
   -1.6316   -4.1841   -1.4314 H   0  0  0  0  0  0
    1.5138    0.0784   -2.4006 H   0  0  0  0  0  0
    7.0693    4.6888    6.8278 H   0  0  0  0  0  0
    8.6596    4.3841    7.6263 H   0  0  0  0  0  0
    7.1513    4.3622    8.6015 H   0  0  0  0  0  0
    5.2402    0.2081   -0.3469 H   0  0  0  0  0  0
    3.9621    0.1953   -2.4350 H   0  0  0  0  0  0
    1.0957    3.3398   -0.0550 H   0  0  0  0  0  0
   -1.5883    1.1664    2.5075 H   0  0  0  0  0  0
   -0.7750    2.4602    4.4468 H   0  0  0  0  0  0
    1.8998    4.6289    1.8902 H   0  0  0  0  0  0
    0.9665    4.1843    4.1349 H   0  0  0  0  0  0
    7.9397    2.1345    8.0935 H   0  0  0  0  0  0
  1  9  1  0  0  0
  1 13  1  0  0  0
  1 14  1  0  0  0
  2  4  1  0  0  0
  2  3  1  0  0  0
  2 12  1  0  0  0
  2 34  1  0  0  0
  3 15  2  0  0  0
  3 20  1  0  0  0
  4  6  2  0  0  0
  4 25  1  0  0  0
  5 10  3  0  0  0
  6  8  1  0  0  0
  6 35  1  0  0  0
  7 21  1  0  0  0
  7 26  1  0  0  0
  7 22  1  0  0  0
  7 64  1  0  0  0
  8 11  1  0  0  0
  8 27  2  0  0  0
  9 16  2  0  0  0
  9 17  1  0  0  0
 10 24  1  0  0  0
 11 18  1  0  0  0
 11 19  2  0  0  0
 12 23  1  0  0  0
 12 36  1  0  0  0
 12 37  1  0  0  0
 13 22  1  0  0  0
 13 38  1  0  0  0
 13 39  1  0  0  0
 14 21  1  0  0  0
 14 40  1  0  0  0
 14 41  1  0  0  0
 16 19  1  0  0  0
 16 42  1  0  0  0
 17 18  2  0  0  0
 17 43  1  0  0  0
 18 44  1  0  0  0
 19 45  1  0  0  0
 20 24  1  0  0  0
 20 46  1  0  0  0
 21 47  1  0  0  0
 21 48  1  0  0  0
 22 49  1  0  0  0
 22 50  1  0  0  0
 23 29  2  0  0  0
 23 30  1  0  0  0
 24 51  1  0  0  0
 24 52  1  0  0  0
 25 28  2  0  0  0
 25 53  1  0  0  0
 26 54  1  0  0  0
 26 55  1  0  0  0
 26 56  1  0  0  0
 27 28  1  0  0  0
 27 57  1  0  0  0
 28 58  1  0  0  0
 29 32  1  0  0  0
 29 59  1  0  0  0
 30 31  2  0  0  0
 30 60  1  0  0  0
 31 33  1  0  0  0
 31 61  1  0  0  0
 32 33  2  0  0  0
 32 62  1  0  0  0
 33 63  1  0  0  0
M  CHG  1   7   1
M  END
> <chembl_id>
CHEMBL332776

> <chembl_pref_name>
None

> <s_m_source_file>
sdf/inactives_sanitized.sdf

> <i_m_source_file_index>
253

> <i_lp_mmshare_version>
49012

> <i_m_ct_stereo_status>
1

> <i_f3d_flags>
0

> <s_epik_input>
W0NIMl0xW0NIMl1OKFtDSDNdKVtDSDJdW0NIMl1OMWMyW2NIXVtjSF1jKFtjSF1bY0hdMiktYyhbY0hdW2NIXVtjSF0zKVtjSF1jM1tDQEhdKEMoPU8pW05IXVtDSDJdQyNOKVtDSDJdYzRbY0hdW2NIXVtjSF1bY0hdW2NIXTQ=

> <s_epik_cmdline>
J2VwaWtfcHl0aG9uJywgJy1waHQnLCAnMC41JywgJy1waCcsICc3LjUnLCAnLW50JywgJy1tYScsICcyMDAnLCAnLWltYWUnLCAnPGluZmlsZS5tYWU+JywgJy1vbWFlJywgJzxvdXRmaWxlLm1hZT4n

> <r_epik_Ionization_Penalty>
  0.1845

> <r_epik_Ionization_Penalty_Charging>
  0.1844

> <r_epik_Ionization_Penalty_Neutral>
  0.0001

> <r_epik_State_Penalty>
  0.1740

> <r_epik_Charging_Adjusted_Penalty>
0.358412825985856

> <i_epik_Tot_Q>
1

> <i_epik_Tot_abs_Q>
1

> <s_lp_Force_Field>
OPLS3e

> <r_lp_Energy>
61.556074

> <b_lp_Chiralities_Consistent>
1

> <s_lp_Variant>
sdf/inactives_sanitized.sdf:253-1

$$$$
sdf/inactives_sanitized.sdf:254
                    3D
 Schrodinger Suite 2020-1.
 41 42  0  0  1  0            999 V2000
   -0.0899    2.4975   -3.9627 C   0  0  0  0  0  0
    1.0744    3.2411   -4.1643 C   0  0  0  0  0  0
    1.8338    3.6651   -3.0721 C   0  0  0  0  0  0
    1.4390    3.3330   -1.7793 C   0  0  0  0  0  0
    0.2749    2.5875   -1.5801 C   0  0  0  0  0  0
   -0.4912    2.1714   -2.6703 C   0  0  0  0  0  0
    1.5018    3.6007   -5.5756 C   0  0  0  0  0  0
   -0.2387    2.1310    0.0756 S   0  0  0  0  0  0
    0.1253    0.2746    0.1578 C   0  0  0  0  0  0
    1.6054    0.0377   -0.0748 C   0  0  0  0  0  0
    2.1225   -0.4524   -1.2152 C   0  0  0  0  0  0
    3.8961   -0.6740   -1.4124 S   0  0  0  0  0  0
    4.3174    0.5449   -2.6562 C   0  0  0  0  0  0
    4.9156    1.7512   -2.2844 C   0  0  0  0  0  0
    5.2362    2.6934   -3.2579 C   0  0  0  0  0  0
    4.9573    2.4312   -4.6008 C   0  0  0  0  0  0
    4.3553    1.2268   -4.9706 C   0  0  0  0  0  0
    4.0377    0.2820   -3.9990 C   0  0  0  0  0  0
    5.2839    3.4718   -5.6560 C   0  0  0  0  0  0
    0.6369    2.8261    1.0264 O   0  0  0  0  0  0
   -1.6925    2.3184    0.1371 O   0  0  0  0  0  0
    4.5735   -0.2947   -0.1663 O   0  0  0  0  0  0
    4.1197   -1.9977   -2.0047 O   0  0  0  0  0  0
   -0.6828    2.1712   -4.8046 H   0  0  0  0  0  0
    2.7329    4.2449   -3.2215 H   0  0  0  0  0  0
    2.0408    3.6550   -0.9424 H   0  0  0  0  0  0
   -1.3898    1.5915   -2.5185 H   0  0  0  0  0  0
    2.2382    4.4051   -5.5850 H   0  0  0  0  0  0
    0.6436    3.9437   -6.1545 H   0  0  0  0  0  0
    1.9179    2.7293   -6.0815 H   0  0  0  0  0  0
   -0.1617   -0.0707    1.1509 H   0  0  0  0  0  0
   -0.4998   -0.2285   -0.5812 H   0  0  0  0  0  0
    2.2557    0.2996    0.7474 H   0  0  0  0  0  0
    1.5116   -0.7231   -2.0633 H   0  0  0  0  0  0
    5.1303    1.9656   -1.2478 H   0  0  0  0  0  0
    5.6951    3.6271   -2.9662 H   0  0  0  0  0  0
    4.1313    1.0212   -6.0072 H   0  0  0  0  0  0
    3.5710   -0.6479   -4.2901 H   0  0  0  0  0  0
    4.6424    3.3647   -6.5317 H   0  0  0  0  0  0
    6.3257    3.3899   -5.9664 H   0  0  0  0  0  0
    5.1179    4.4776   -5.2679 H   0  0  0  0  0  0
  1  2  2  0  0  0
  1  6  1  0  0  0
  1 24  1  0  0  0
  2  3  1  0  0  0
  2  7  1  0  0  0
  3  4  2  0  0  0
  3 25  1  0  0  0
  4  5  1  0  0  0
  4 26  1  0  0  0
  5  6  2  0  0  0
  5  8  1  0  0  0
  6 27  1  0  0  0
  7 28  1  0  0  0
  7 29  1  0  0  0
  7 30  1  0  0  0
  8  9  1  0  0  0
  8 20  2  0  0  0
  8 21  2  0  0  0
  9 10  1  0  0  0
  9 31  1  0  0  0
  9 32  1  0  0  0
 10 11  2  0  0  0
 10 33  1  0  0  0
 11 12  1  0  0  0
 11 34  1  0  0  0
 12 13  1  0  0  0
 12 22  2  0  0  0
 12 23  2  0  0  0
 13 14  2  0  0  0
 13 18  1  0  0  0
 14 15  1  0  0  0
 14 35  1  0  0  0
 15 16  2  0  0  0
 15 36  1  0  0  0
 16 17  1  0  0  0
 16 19  1  0  0  0
 17 18  2  0  0  0
 17 37  1  0  0  0
 18 38  1  0  0  0
 19 39  1  0  0  0
 19 40  1  0  0  0
 19 41  1  0  0  0
M  END
> <chembl_id>
CHEMBL2316610

> <chembl_pref_name>
None

> <s_m_source_file>
sdf/inactives_sanitized.sdf

> <i_m_source_file_index>
254

> <i_lp_mmshare_version>
49012

> <i_m_ct_stereo_status>
1

> <i_f3d_flags>
0

> <s_epik_input>
W0NIM11jMVtjSF1bY0hdYyhbY0hdW2NIXTEpUyg9TykoPU8pW0NIMl0vW0NIXT1bQ0hdL1MoPU8pKD1PKWMyW2NIXVtjSF1jKFtDSDNdKVtjSF1bY0hdMg==

> <s_epik_cmdline>
J2VwaWtfcHl0aG9uJywgJy1waHQnLCAnMC41JywgJy1waCcsICc3LjUnLCAnLW50JywgJy1tYScsICcyMDAnLCAnLWltYWUnLCAnPGluZmlsZS5tYWU+JywgJy1vbWFlJywgJzxvdXRmaWxlLm1hZT4n

> <r_lp_tautomer_probability>
1

> <r_epik_Ionization_Penalty>
  0.0000

> <r_epik_Ionization_Penalty_Charging>
  0.0000

> <r_epik_Ionization_Penalty_Neutral>
  0.0000

> <r_epik_State_Penalty>
 -0.0000

> <r_epik_Charging_Adjusted_Penalty>
0

> <i_epik_Tot_Q>
0

> <i_epik_Tot_abs_Q>
0

> <s_lp_Force_Field>
OPLS3e

> <r_lp_Energy>
0.752125

> <b_lp_Chiralities_Consistent>
1

> <s_lp_Variant>
sdf/inactives_sanitized.sdf:254-1

$$$$
sdf/inactives_sanitized.sdf:255
                    3D
 Schrodinger Suite 2020-1.
 49 51  0  0  1  0            999 V2000
   -0.8322   -0.3912   -1.0742 C   0  0  2  0  0  0
   -0.0897    0.3077    0.0794 C   0  0  2  0  0  0
   -2.1476   -0.3581    0.8862 N   0  0  2  0  0  0
   -3.0994   -0.7622    1.7461 C   0  0  0  0  0  0
   -0.8913    0.4169   -2.3874 C   0  0  0  0  0  0
    1.4362    0.2039    0.0559 C   0  0  0  0  0  0
    3.4680   -1.1460   -0.0532 C   0  0  0  0  0  0
   -3.9048   -1.1588    2.4764 N   0  0  0  0  0  0
   -2.2243   -0.7535   -0.5172 C   0  0  0  0  0  0
    2.0668   -1.0411   -0.0256 C   0  0  0  0  0  0
   -0.7527   -0.3331    1.2999 C   0  0  0  0  0  0
    4.1485   -2.3494   -0.1432 O   0  0  0  0  0  0
    4.2460    0.0196    0.0102 C   0  0  0  0  0  0
    2.2188    1.3577    0.1167 C   0  0  0  0  0  0
   -0.3937    1.5408   -2.4958 O   0  0  0  0  0  0
    3.6080    1.2686    0.0946 C   0  0  0  0  0  0
   -1.5313   -0.2563   -3.3684 O   0  0  0  0  0  0
    3.4362   -3.5864   -0.2352 C   0  0  0  0  0  0
    5.6206   -0.1388   -0.0157 O   0  0  0  0  0  0
   -1.6862    0.3196   -4.6572 C   0  0  0  0  0  0
    6.4600    1.0088    0.0517 C   0  0  0  0  0  0
    4.4652   -4.7172   -0.0473 C   0  0  0  0  0  0
    2.8704   -3.7789   -1.6639 C   0  0  0  0  0  0
    4.8318   -5.1771   -1.4587 C   0  0  0  0  0  0
    3.5224   -5.0455   -2.2296 C   0  0  0  0  0  0
   -0.3137   -1.3161   -1.3282 H   0  0  0  0  0  0
   -0.3477    1.3709    0.0922 H   0  0  0  0  0  0
   -2.4178   -1.8231   -0.6106 H   0  0  0  0  0  0
   -3.0388   -0.2177   -1.0078 H   0  0  0  0  0  0
    1.4491   -1.9243   -0.0691 H   0  0  0  0  0  0
   -0.3911   -1.3451    1.4905 H   0  0  0  0  0  0
   -0.6063    0.2642    2.2008 H   0  0  0  0  0  0
    1.7539    2.3310    0.1789 H   0  0  0  0  0  0
    4.1748    2.1858    0.1423 H   0  0  0  0  0  0
    2.6662   -3.6687    0.5339 H   0  0  0  0  0  0
   -2.2269   -0.3682   -5.3071 H   0  0  0  0  0  0
   -0.7168    0.5263   -5.1129 H   0  0  0  0  0  0
   -2.2506    1.2518   -4.6049 H   0  0  0  0  0  0
    7.5029    0.6926    0.0312 H   0  0  0  0  0  0
    6.3030    1.5658    0.9765 H   0  0  0  0  0  0
    6.2992    1.6721   -0.7995 H   0  0  0  0  0  0
    5.3639   -4.3807    0.4723 H   0  0  0  0  0  0
    4.0342   -5.5361    0.5310 H   0  0  0  0  0  0
    1.7825   -3.8558   -1.6652 H   0  0  0  0  0  0
    3.1374   -2.9341   -2.3015 H   0  0  0  0  0  0
    5.5899   -4.5190   -1.8873 H   0  0  0  0  0  0
    5.2257   -6.1940   -1.4764 H   0  0  0  0  0  0
    2.8879   -5.9122   -2.0367 H   0  0  0  0  0  0
    3.6801   -4.9875   -3.3072 H   0  0  0  0  0  0
  1  2  1  0  0  0
  1  5  1  0  0  0
  1  9  1  0  0  0
  1 26  1  0  0  0
  2  6  1  0  0  0
  2 11  1  0  0  0
  2 27  1  0  0  0
  3  9  1  0  0  0
  3  4  1  0  0  0
  3 11  1  0  0  0
  4  8  3  0  0  0
  5 15  2  0  0  0
  5 17  1  0  0  0
  6 10  1  0  0  0
  6 14  2  0  0  0
  7 10  2  0  0  0
  7 12  1  0  0  0
  7 13  1  0  0  0
  9 28  1  0  0  0
  9 29  1  0  0  0
 10 30  1  0  0  0
 11 31  1  0  0  0
 11 32  1  0  0  0
 12 18  1  0  0  0
 13 16  2  0  0  0
 13 19  1  0  0  0
 14 16  1  0  0  0
 14 33  1  0  0  0
 16 34  1  0  0  0
 17 20  1  0  0  0
 18 22  1  0  0  0
 18 23  1  0  0  0
 18 35  1  0  0  0
 19 21  1  0  0  0
 20 36  1  0  0  0
 20 37  1  0  0  0
 20 38  1  0  0  0
 21 39  1  0  0  0
 21 40  1  0  0  0
 21 41  1  0  0  0
 22 24  1  0  0  0
 22 42  1  0  0  0
 22 43  1  0  0  0
 23 25  1  0  0  0
 23 44  1  0  0  0
 23 45  1  0  0  0
 24 25  1  0  0  0
 24 46  1  0  0  0
 24 47  1  0  0  0
 25 48  1  0  0  0
 25 49  1  0  0  0
M  END
> <chembl_id>
CHEMBL183446

> <chembl_pref_name>
None

> <i_m_ct_stereo_status>
1

> <s_m_source_file>
sdf/inactives_sanitized.sdf

> <i_m_source_file_index>
255

> <i_lp_mmshare_version>
49012

> <i_f3d_flags>
0

> <s_epik_input>
TiNDTihbQ0gyXTEpW0NIMl1bQ0BIXShbQ0BASF0xQyg9TylPW0NIM10pYzJbY0hdYyhjKFtjSF1bY0hdMilPW0NIM10pT1tDSF0zW0NIMl1bQ0gyXVtDSDJdW0NIMl0z

> <s_epik_cmdline>
J2VwaWtfcHl0aG9uJywgJy1waHQnLCAnMC41JywgJy1waCcsICc3LjUnLCAnLW50JywgJy1tYScsICcyMDAnLCAnLWltYWUnLCAnPGluZmlsZS5tYWU+JywgJy1vbWFlJywgJzxvdXRmaWxlLm1hZT4n

> <r_lp_tautomer_probability>
1

> <r_epik_Ionization_Penalty>
  0.0000

> <r_epik_Ionization_Penalty_Charging>
  0.0000

> <r_epik_Ionization_Penalty_Neutral>
  0.0000

> <r_epik_State_Penalty>
 -0.0000

> <r_epik_Charging_Adjusted_Penalty>
0

> <i_epik_Tot_Q>
0

> <i_epik_Tot_abs_Q>
0

> <s_epik_Chemistry_Notes>
This compound has an ester and may undergo hydrolysis at high or low pH.

> <s_lp_Force_Field>
OPLS3e

> <r_lp_Energy>
37.907281

> <b_lp_Chiralities_Consistent>
1

> <s_lp_Variant>
sdf/inactives_sanitized.sdf:255-1

$$$$
sdf/inactives_sanitized.sdf:256
                    3D
 Schrodinger Suite 2020-1.
 75 79  0  0  1  0            999 V2000
   -2.9112   -0.9504    1.8988 C   0  0  0  0  0  0
   -1.4033   -0.6529    1.8164 C   0  0  0  0  0  0
   -0.8657   -0.4253    0.3795 C   0  0  2  0  0  0
    0.6004   -0.3060    0.3788 N   0  0  0  0  0  0
    1.4464   -0.9001   -0.4830 C   0  0  0  0  0  0
    1.0662   -1.6243   -1.4048 O   0  0  0  0  0  0
    2.9348   -0.5117   -0.3494 C   0  0  2  0  0  0
    3.4059    0.4097   -1.4793 C   0  0  0  0  0  0
    3.9450   -0.5246   -2.5535 C   0  0  2  0  0  0
    4.3384   -1.8313   -1.8530 C   0  0  0  0  0  0
    3.8060   -1.6959   -0.4877 N   0  0  0  0  0  0
    4.3114   -2.3576    0.5902 C   0  0  0  0  0  0
    4.0244   -2.0001    1.7369 O   0  0  0  0  0  0
    5.2117   -3.6239    0.3987 C   0  0  0  0  0  0
    6.6349   -3.3610    0.8913 C   0  0  0  0  0  0
    5.7251   -4.2431    1.6986 C   0  0  0  0  0  0
    4.9535   -4.5471   -0.7976 C   0  0  0  0  0  0
    5.9231   -4.7407   -1.7890 C   0  0  0  0  0  0
    5.6517   -5.5617   -2.8800 C   0  0  0  0  0  0
    4.4123   -6.1905   -2.9821 C   0  0  0  0  0  0
    4.0750   -7.2036   -4.3382 Cl  0  0  0  0  0  0
    3.4419   -6.0046   -1.9995 C   0  0  0  0  0  0
    3.7129   -5.1834   -0.9088 C   0  0  0  0  0  0
    5.3934    0.2096   -3.5366 S   0  0  0  0  0  0
    6.4308    0.6128   -2.5791 O   0  0  0  0  0  0
    5.7505   -0.7214   -4.6112 O   0  0  0  0  0  0
    4.7213    1.7242   -4.2743 C   0  0  0  0  0  0
    4.9142    2.9018   -3.5380 C   0  0  0  0  0  0
    4.4824    4.1328   -4.0205 C   0  0  0  0  0  0
    3.8485    4.2069   -5.2538 C   0  0  0  0  0  0
    3.6313    3.0472   -5.9916 C   0  0  0  0  0  0
    4.0424    1.7893   -5.5190 C   0  0  0  0  0  0
    3.7435    0.5637   -6.3981 C   0  0  0  0  0  0
    2.8309    0.8286   -7.3358 F   0  0  0  0  0  0
    4.8565    0.1801   -7.0228 F   0  0  0  0  0  0
    3.2627   -0.4518   -5.6846 F   0  0  0  0  0  0
   -1.3741    0.8672   -0.2636 C   0  0  0  0  0  0
   -1.9066    1.7913    0.3573 O   0  0  0  0  0  0
   -1.1681    0.9826   -1.8249 C   0  0  0  0  0  0
   -1.3314    0.0152   -2.5694 O   0  0  0  0  0  0
   -0.7623    2.2122   -2.1850 N   0  0  0  0  0  0
   -0.4966    2.6169   -3.5606 C   0  0  0  0  0  0
    0.5848    1.9065   -4.3519 C   0  0  0  0  0  0
    0.8093    3.3146   -3.8587 C   0  0  0  0  0  0
   -3.2108   -1.1497    2.9281 H   0  0  0  0  0  0
   -3.1729   -1.8263    1.3044 H   0  0  0  0  0  0
   -3.5103   -0.1128    1.5411 H   0  0  0  0  0  0
   -1.1582    0.1963    2.4572 H   0  0  0  0  0  0
   -0.8706   -1.4971    2.2573 H   0  0  0  0  0  0
   -1.1856   -1.2844   -0.2161 H   0  0  0  0  0  0
    0.9838    0.2764    1.1090 H   0  0  0  0  0  0
    3.0383   -0.0404    0.6302 H   0  0  0  0  0  0
    2.6493    1.1140   -1.8305 H   0  0  0  0  0  0
    4.2078    1.0317   -1.0792 H   0  0  0  0  0  0
    3.1666   -0.7295   -3.2868 H   0  0  0  0  0  0
    3.8965   -2.6521   -2.4188 H   0  0  0  0  0  0
    5.4282   -1.8827   -1.8400 H   0  0  0  0  0  0
    7.4818   -3.8267    0.3883 H   0  0  0  0  0  0
    6.9023   -2.3798    1.2879 H   0  0  0  0  0  0
    5.9151   -5.3168    1.7142 H   0  0  0  0  0  0
    5.3752   -3.8912    2.6699 H   0  0  0  0  0  0
    6.8808   -4.2458   -1.7334 H   0  0  0  0  0  0
    6.4000   -5.7036   -3.6460 H   0  0  0  0  0  0
    2.4808   -6.4908   -2.0824 H   0  0  0  0  0  0
    2.9552   -5.0356   -0.1528 H   0  0  0  0  0  0
    5.4123    2.8770   -2.5801 H   0  0  0  0  0  0
    4.6460    5.0293   -3.4407 H   0  0  0  0  0  0
    3.5175    5.1612   -5.6362 H   0  0  0  0  0  0
    3.1295    3.1429   -6.9433 H   0  0  0  0  0  0
   -0.7199    2.9345   -1.4804 H   0  0  0  0  0  0
   -1.3887    2.9385   -4.0997 H   0  0  0  0  0  0
    1.1329    1.0873   -3.8845 H   0  0  0  0  0  0
    0.4196    1.7366   -5.4160 H   0  0  0  0  0  0
    1.5166    3.4807   -3.0454 H   0  0  0  0  0  0
    0.8043    4.1344   -4.5769 H   0  0  0  0  0  0
  1  2  1  0  0  0
  1 45  1  0  0  0
  1 46  1  0  0  0
  1 47  1  0  0  0
  2  3  1  0  0  0
  2 48  1  0  0  0
  2 49  1  0  0  0
  3  4  1  0  0  0
  3 37  1  0  0  0
  3 50  1  0  0  0
  4  5  1  0  0  0
  4 51  1  0  0  0
  5  6  2  0  0  0
  5  7  1  0  0  0
  7  8  1  0  0  0
  7 11  1  0  0  0
  7 52  1  0  0  0
  8  9  1  0  0  0
  8 53  1  0  0  0
  8 54  1  0  0  0
  9 10  1  0  0  0
  9 24  1  0  0  0
  9 55  1  0  0  0
 10 11  1  0  0  0
 10 56  1  0  0  0
 10 57  1  0  0  0
 11 12  1  0  0  0
 12 13  2  0  0  0
 12 14  1  0  0  0
 14 15  1  0  0  0
 14 16  1  0  0  0
 14 17  1  0  0  0
 15 16  1  0  0  0
 15 58  1  0  0  0
 15 59  1  0  0  0
 16 60  1  0  0  0
 16 61  1  0  0  0
 17 18  2  0  0  0
 17 23  1  0  0  0
 18 19  1  0  0  0
 18 62  1  0  0  0
 19 20  2  0  0  0
 19 63  1  0  0  0
 20 21  1  0  0  0
 20 22  1  0  0  0
 22 23  2  0  0  0
 22 64  1  0  0  0
 23 65  1  0  0  0
 24 25  2  0  0  0
 24 26  2  0  0  0
 24 27  1  0  0  0
 27 28  2  0  0  0
 27 32  1  0  0  0
 28 29  1  0  0  0
 28 66  1  0  0  0
 29 30  2  0  0  0
 29 67  1  0  0  0
 30 31  1  0  0  0
 30 68  1  0  0  0
 31 32  2  0  0  0
 31 69  1  0  0  0
 32 33  1  0  0  0
 33 34  1  0  0  0
 33 35  1  0  0  0
 33 36  1  0  0  0
 37 38  2  0  0  0
 37 39  1  0  0  0
 39 40  2  0  0  0
 39 41  1  0  0  0
 41 42  1  0  0  0
 41 70  1  0  0  0
 42 43  1  0  0  0
 42 44  1  0  0  0
 42 71  1  0  0  0
 43 44  1  0  0  0
 43 72  1  0  0  0
 43 73  1  0  0  0
 44 74  1  0  0  0
 44 75  1  0  0  0
M  END
> <chembl_id>
CHEMBL3649382

> <chembl_pref_name>
None

> <i_m_ct_stereo_status>
1

> <s_m_source_file>
sdf/inactives_sanitized.sdf

> <i_m_source_file_index>
256

> <i_lp_mmshare_version>
49012

> <i_f3d_flags>
0

> <s_epik_input>
W0NIMl0xW0NIMl1bQ0hdMVtOSF1DKD1PKUMoPU8pW0NASF0oW0NIMl1bQ0gzXSlbTkhdQyg9TylbQ0BASF0yW0NIMl1bQ0BASF0oUyg9TykoPU8pYzNbY0hdW2NIXVtjSF1bY0hdYzNDKEYpKEYpRilbQ0gyXU4yQyg9TylDNChbQ0gyXVtDSDJdNCljNVtjSF1bY0hdYyhDbClbY0hdW2NIXTU=

> <s_epik_cmdline>
J2VwaWtfcHl0aG9uJywgJy1waHQnLCAnMC41JywgJy1waCcsICc3LjUnLCAnLW50JywgJy1tYScsICcyMDAnLCAnLWltYWUnLCAnPGluZmlsZS5tYWU+JywgJy1vbWFlJywgJzxvdXRmaWxlLm1hZT4n

> <r_lp_tautomer_probability>
1

> <r_epik_Ionization_Penalty>
  0.0000

> <r_epik_Ionization_Penalty_Charging>
  0.0000

> <r_epik_Ionization_Penalty_Neutral>
  0.0000

> <r_epik_State_Penalty>
 -0.0000

> <r_epik_Charging_Adjusted_Penalty>
0

> <i_epik_Tot_Q>
0

> <i_epik_Tot_abs_Q>
0

> <s_lp_Force_Field>
OPLS3e

> <r_lp_Energy>
58.882192

> <b_lp_Chiralities_Consistent>
1

> <s_lp_Variant>
sdf/inactives_sanitized.sdf:256-1

$$$$
sdf/inactives_sanitized.sdf:257
                    3D
 Schrodinger Suite 2020-1.
 48 51  0  0  1  0            999 V2000
   -1.8284    0.9822   -0.0579 C   0  0  0  0  0  0
   -2.6438   -0.1563   -0.0036 C   0  0  0  0  0  0
   -2.0370   -1.4172    0.0975 C   0  0  0  0  0  0
   -0.6512   -1.5373    0.1450 C   0  0  0  0  0  0
    0.1467   -0.3943    0.0927 C   0  0  0  0  0  0
   -0.4419    0.8660   -0.0119 C   0  0  0  0  0  0
    1.9314   -0.5476    0.1408 S   0  0  0  0  0  0
    2.3657   -0.7626   -1.5933 C   0  0  0  0  0  0
    3.1049    0.1601   -2.2419 C   0  0  0  0  0  0
    3.5372    0.1270   -3.6596 C   0  0  0  0  0  0
    3.1990   -0.9138   -4.5369 C   0  0  0  0  0  0
    3.6330   -0.8923   -5.8596 C   0  0  0  0  0  0
    4.4132    0.1688   -6.3286 C   0  0  0  0  0  0
    4.7517    1.2085   -5.4579 C   0  0  0  0  0  0
    4.3169    1.1857   -4.1356 C   0  0  0  0  0  0
    4.8942    0.1948   -7.7792 C   0  0  0  0  0  0
    6.0859    0.7860   -7.8842 F   0  0  0  0  0  0
    5.0002   -1.0357   -8.2846 F   0  0  0  0  0  0
    4.0167    0.8779   -8.5138 F   0  0  0  0  0  0
   -4.1420   -0.0147   -0.0544 C   0  0  0  0  0  0
   -4.8571    1.1838   -0.1514 C   0  0  0  0  0  0
   -6.5640    0.8732   -0.1779 S   0  0  0  0  0  0
   -6.2060   -0.8231   -0.0555 C   0  0  0  0  0  0
   -4.9199   -1.0873   -0.0078 N   0  0  0  0  0  0
   -7.2828   -1.8730   -0.0265 C   0  0  0  0  0  0
   -6.9338   -3.2315   -0.0349 C   0  0  0  0  0  0
   -7.9171   -4.2167   -0.0061 C   0  0  0  0  0  0
   -9.2592   -3.8506    0.0323 C   0  0  0  0  0  0
   -9.6247   -2.5077    0.0427 C   0  0  0  0  0  0
   -8.6403   -1.5232    0.0136 C   0  0  0  0  0  0
    2.4728    0.7296    0.6218 O   0  0  0  0  0  0
    2.2499   -1.7985    0.8386 O   0  0  0  0  0  0
   -2.2570    1.9697   -0.1376 H   0  0  0  0  0  0
   -2.6338   -2.3167    0.1394 H   0  0  0  0  0  0
   -0.2039   -2.5178    0.2199 H   0  0  0  0  0  0
    0.1685    1.7560   -0.0595 H   0  0  0  0  0  0
    1.9949   -1.6624   -2.0594 H   0  0  0  0  0  0
    3.4272    1.0281   -1.6845 H   0  0  0  0  0  0
    2.5974   -1.7479   -4.2082 H   0  0  0  0  0  0
    3.3560   -1.7037   -6.5172 H   0  0  0  0  0  0
    5.3507    2.0395   -5.8018 H   0  0  0  0  0  0
    4.5919    2.0011   -3.4815 H   0  0  0  0  0  0
   -4.4856    2.1960   -0.2068 H   0  0  0  0  0  0
   -5.8972   -3.5348   -0.0648 H   0  0  0  0  0  0
   -7.6395   -5.2604   -0.0132 H   0  0  0  0  0  0
  -10.0227   -4.6142    0.0551 H   0  0  0  0  0  0
  -10.6681   -2.2303    0.0744 H   0  0  0  0  0  0
   -8.9496   -0.4890    0.0249 H   0  0  0  0  0  0
  1  2  2  0  0  0
  1  6  1  0  0  0
  1 33  1  0  0  0
  2  3  1  0  0  0
  2 20  1  0  0  0
  3  4  2  0  0  0
  3 34  1  0  0  0
  4  5  1  0  0  0
  4 35  1  0  0  0
  5  6  2  0  0  0
  5  7  1  0  0  0
  6 36  1  0  0  0
  7  8  1  0  0  0
  7 31  2  0  0  0
  7 32  2  0  0  0
  8  9  2  0  0  0
  8 37  1  0  0  0
  9 10  1  0  0  0
  9 38  1  0  0  0
 10 11  2  0  0  0
 10 15  1  0  0  0
 11 12  1  0  0  0
 11 39  1  0  0  0
 12 13  2  0  0  0
 12 40  1  0  0  0
 13 14  1  0  0  0
 13 16  1  0  0  0
 14 15  2  0  0  0
 14 41  1  0  0  0
 15 42  1  0  0  0
 16 17  1  0  0  0
 16 18  1  0  0  0
 16 19  1  0  0  0
 20 21  2  0  0  0
 20 24  1  0  0  0
 21 22  1  0  0  0
 21 43  1  0  0  0
 22 23  1  0  0  0
 23 24  2  0  0  0
 23 25  1  0  0  0
 25 26  2  0  0  0
 25 30  1  0  0  0
 26 27  1  0  0  0
 26 44  1  0  0  0
 27 28  2  0  0  0
 27 45  1  0  0  0
 28 29  1  0  0  0
 28 46  1  0  0  0
 29 30  2  0  0  0
 29 47  1  0  0  0
 30 48  1  0  0  0
M  END
> <chembl_id>
CHEMBL2316310

> <chembl_pref_name>
None

> <s_m_source_file>
sdf/inactives_sanitized.sdf

> <i_m_source_file_index>
257

> <i_lp_mmshare_version>
49012

> <i_m_ct_stereo_status>
1

> <i_f3d_flags>
0

> <s_epik_input>
W2NIXTFbY0hdW2NIXVtjSF1bY0hdYzEtYyhuMilzW2NIXWMyLWMzW2NIXVtjSF1jKFtjSF1bY0hdMylTKD1PKSg9TykvW0NIXT1bQ0hdL2M0W2NIXVtjSF1jKEMoRikoRilGKVtjSF1bY0hdNA==

> <s_epik_cmdline>
J2VwaWtfcHl0aG9uJywgJy1waHQnLCAnMC41JywgJy1waCcsICc3LjUnLCAnLW50JywgJy1tYScsICcyMDAnLCAnLWltYWUnLCAnPGluZmlsZS5tYWU+JywgJy1vbWFlJywgJzxvdXRmaWxlLm1hZT4n

> <r_lp_tautomer_probability>
1

> <r_epik_Ionization_Penalty>
  0.0000

> <r_epik_Ionization_Penalty_Charging>
  0.0000

> <r_epik_Ionization_Penalty_Neutral>
  0.0000

> <r_epik_State_Penalty>
 -0.0000

> <r_epik_Charging_Adjusted_Penalty>
0

> <i_epik_Tot_Q>
0

> <i_epik_Tot_abs_Q>
0

> <s_lp_Force_Field>
OPLS3e

> <r_lp_Energy>
34.506906

> <b_lp_Chiralities_Consistent>
1

> <s_lp_Variant>
sdf/inactives_sanitized.sdf:257-1

$$$$
sdf/inactives_sanitized.sdf:258
                    3D
 Schrodinger Suite 2020-1.
 68 71  0  0  1  0            999 V2000
   -0.2010   -1.1726    1.5410 C   0  0  0  0  0  0
   -0.2837    0.2400    0.9374 C   0  0  0  0  0  0
    0.3216    0.3576   -0.4892 C   0  0  2  0  0  0
    1.7634    0.0656   -0.5027 N   0  0  0  0  0  0
    2.3290   -1.1034   -0.8525 C   0  0  0  0  0  0
    1.6784   -2.0681   -1.2590 O   0  0  0  0  0  0
    3.8656   -1.1854   -0.7266 C   0  0  2  0  0  0
    4.5393   -1.0517   -2.0970 C   0  0  0  0  0  0
    5.8128   -1.8587   -1.9151 C   0  0  2  0  0  0
    5.3833   -2.9586   -0.9400 C   0  0  0  0  0  0
    4.2929   -2.4489   -0.0951 N   0  0  0  0  0  0
    4.1801   -2.7763    1.2765 C   0  0  0  0  0  0
    3.8851   -1.7631    2.2079 C   0  0  0  0  0  0
    3.8535   -2.0136    3.5762 C   0  0  0  0  0  0
    4.1107   -3.2918    4.0520 C   0  0  0  0  0  0
    4.3683   -4.3216    3.1544 C   0  0  0  0  0  0
    4.3847   -4.0929    1.7698 C   0  0  0  0  0  0
    4.5086   -5.2755    0.8855 N   0  3  0  0  0  0
    3.8014   -5.3386   -0.1151 O   0  0  0  0  0  0
    5.2573   -6.1831    1.2365 O   0  5  0  0  0  0
    7.2492   -0.8216   -1.2015 S   0  0  0  0  0  0
    6.7599   -0.0925   -0.0249 O   0  0  0  0  0  0
    8.4213   -1.6893   -1.0499 O   0  0  0  0  0  0
    7.6073    0.4083   -2.4873 C   0  0  0  0  0  0
    6.9728    1.6510   -2.3423 C   0  0  0  0  0  0
    7.1836    2.6800   -3.2541 C   0  0  0  0  0  0
    8.0402    2.4844   -4.3295 C   0  0  0  0  0  0
    8.6758    1.2573   -4.4946 C   0  0  0  0  0  0
    8.4690    0.1967   -3.5958 C   0  0  0  0  0  0
    9.2160   -1.1212   -3.8630 C   0  0  0  0  0  0
    9.7078   -1.1792   -5.1032 F   0  0  0  0  0  0
   10.2454   -1.2282   -3.0233 F   0  0  0  0  0  0
    8.4213   -2.1801   -3.7260 F   0  0  0  0  0  0
    0.1626    1.7777   -1.0430 C   0  0  0  0  0  0
    1.0849    2.5934   -1.1709 O   0  0  0  0  0  0
   -1.3134    2.1715   -1.4774 C   0  0  0  0  0  0
   -2.2254    1.3427   -1.4963 O   0  0  0  0  0  0
   -1.4240    3.4731   -1.8019 N   0  0  0  0  0  0
   -2.6344    4.0896   -2.3345 C   0  0  0  0  0  0
   -3.0951    5.4003   -1.7405 C   0  0  0  0  0  0
   -3.8838    4.1396   -1.4794 C   0  0  0  0  0  0
   -0.6888   -1.2073    2.5154 H   0  0  0  0  0  0
    0.8317   -1.4914    1.6835 H   0  0  0  0  0  0
   -0.6921   -1.9053    0.8995 H   0  0  0  0  0  0
   -1.3339    0.5355    0.9304 H   0  0  0  0  0  0
    0.2216    0.9306    1.6153 H   0  0  0  0  0  0
   -0.1962   -0.3371   -1.1556 H   0  0  0  0  0  0
    2.3555    0.8079   -0.1589 H   0  0  0  0  0  0
    4.1845   -0.3408   -0.1148 H   0  0  0  0  0  0
    3.9512   -1.4781   -2.9131 H   0  0  0  0  0  0
    4.7523   -0.0181   -2.3666 H   0  0  0  0  0  0
    6.1706   -2.2587   -2.8620 H   0  0  0  0  0  0
    5.0213   -3.7697   -1.5720 H   0  0  0  0  0  0
    6.2612   -3.2516   -0.3621 H   0  0  0  0  0  0
    3.6974   -0.7480    1.8969 H   0  0  0  0  0  0
    3.6381   -1.2124    4.2677 H   0  0  0  0  0  0
    4.0897   -3.4899    5.1137 H   0  0  0  0  0  0
    4.5204   -5.3181    3.5437 H   0  0  0  0  0  0
    6.3037    1.8348   -1.5145 H   0  0  0  0  0  0
    6.6866    3.6301   -3.1233 H   0  0  0  0  0  0
    8.2129    3.2830   -5.0359 H   0  0  0  0  0  0
    9.3382    1.1441   -5.3404 H   0  0  0  0  0  0
   -0.5877    4.0396   -1.8017 H   0  0  0  0  0  0
   -2.7639    3.9352   -3.4068 H   0  0  0  0  0  0
   -2.5164    5.8410   -0.9279 H   0  0  0  0  0  0
   -3.5062    6.1544   -2.4117 H   0  0  0  0  0  0
   -3.8594    3.6944   -0.4840 H   0  0  0  0  0  0
   -4.8478    4.0034   -1.9698 H   0  0  0  0  0  0
  1  2  1  0  0  0
  1 42  1  0  0  0
  1 43  1  0  0  0
  1 44  1  0  0  0
  2  3  1  0  0  0
  2 45  1  0  0  0
  2 46  1  0  0  0
  3  4  1  0  0  0
  3 34  1  0  0  0
  3 47  1  0  0  0
  4  5  1  0  0  0
  4 48  1  0  0  0
  5  6  2  0  0  0
  5  7  1  0  0  0
  7  8  1  0  0  0
  7 11  1  0  0  0
  7 49  1  0  0  0
  8  9  1  0  0  0
  8 50  1  0  0  0
  8 51  1  0  0  0
  9 10  1  0  0  0
  9 21  1  0  0  0
  9 52  1  0  0  0
 10 11  1  0  0  0
 10 53  1  0  0  0
 10 54  1  0  0  0
 11 12  1  0  0  0
 12 13  2  0  0  0
 12 17  1  0  0  0
 13 14  1  0  0  0
 13 55  1  0  0  0
 14 15  2  0  0  0
 14 56  1  0  0  0
 15 16  1  0  0  0
 15 57  1  0  0  0
 16 17  2  0  0  0
 16 58  1  0  0  0
 17 18  1  0  0  0
 18 19  2  0  0  0
 18 20  1  0  0  0
 21 22  2  0  0  0
 21 23  2  0  0  0
 21 24  1  0  0  0
 24 25  2  0  0  0
 24 29  1  0  0  0
 25 26  1  0  0  0
 25 59  1  0  0  0
 26 27  2  0  0  0
 26 60  1  0  0  0
 27 28  1  0  0  0
 27 61  1  0  0  0
 28 29  2  0  0  0
 28 62  1  0  0  0
 29 30  1  0  0  0
 30 31  1  0  0  0
 30 32  1  0  0  0
 30 33  1  0  0  0
 34 35  2  0  0  0
 34 36  1  0  0  0
 36 37  2  0  0  0
 36 38  1  0  0  0
 38 39  1  0  0  0
 38 63  1  0  0  0
 39 40  1  0  0  0
 39 41  1  0  0  0
 39 64  1  0  0  0
 40 41  1  0  0  0
 40 65  1  0  0  0
 40 66  1  0  0  0
 41 67  1  0  0  0
 41 68  1  0  0  0
M  CHG  2  18   1  20  -1
M  END
> <chembl_id>
CHEMBL3649364

> <chembl_pref_name>
None

> <i_m_ct_stereo_status>
1

> <s_m_source_file>
sdf/inactives_sanitized.sdf

> <i_m_source_file_index>
258

> <i_lp_mmshare_version>
49012

> <i_f3d_flags>
0

> <s_epik_input>
W0NIMl0xW0NIMl1bQ0hdMVtOSF1DKD1PKUMoPU8pW0NASF0oW0NIMl1bQ0gzXSlbTkhdQyg9TylbQ0BASF0yW0NIMl1bQ0BASF0oUyg9TykoPU8pYzNbY0hdW2NIXVtjSF1bY0hdYzNDKEYpKEYpRilbQ0gyXU4yYzRbY0hdW2NIXVtjSF1bY0hdYzRbTitdKD1PKVtPLV0=

> <s_epik_cmdline>
J2VwaWtfcHl0aG9uJywgJy1waHQnLCAnMC41JywgJy1waCcsICc3LjUnLCAnLW50JywgJy1tYScsICcyMDAnLCAnLWltYWUnLCAnPGluZmlsZS5tYWU+JywgJy1vbWFlJywgJzxvdXRmaWxlLm1hZT4n

> <r_lp_tautomer_probability>
1

> <r_epik_Ionization_Penalty>
  0.0000

> <r_epik_Ionization_Penalty_Charging>
  0.0000

> <r_epik_Ionization_Penalty_Neutral>
  0.0000

> <r_epik_State_Penalty>
 -0.0000

> <r_epik_Charging_Adjusted_Penalty>
0

> <i_epik_Tot_Q>
0

> <i_epik_Tot_abs_Q>
2

> <s_lp_Force_Field>
OPLS3e

> <r_lp_Energy>
49.680177

> <b_lp_Chiralities_Consistent>
1

> <s_lp_Variant>
sdf/inactives_sanitized.sdf:258-1

$$$$
sdf/inactives_sanitized.sdf:259
                    3D
 Schrodinger Suite 2020-1.
 61 65  0  0  1  0            999 V2000
   -4.5705   10.7189    2.2506 C   0  0  0  0  0  0
   -3.9584    9.5663    1.5971 N   0  0  0  0  0  0
   -3.6380    8.3470    2.3295 C   0  0  0  0  0  0
   -3.0421    7.4857    1.2590 C   0  0  0  0  0  0
   -2.5310    6.1881    1.3045 C   0  0  0  0  0  0
   -2.0166    5.5797    0.1452 C   0  0  0  0  0  0
   -2.0354    6.3169   -1.0530 C   0  0  0  0  0  0
   -2.5480    7.6149   -1.0995 C   0  0  0  0  0  0
   -3.0482    8.1853    0.0686 C   0  0  0  0  0  0
   -3.6431    9.5411    0.2820 C   0  0  0  0  0  0
   -3.8096   10.4344   -0.5490 O   0  0  0  0  0  0
   -1.4633    4.1899    0.1845 C   0  0  0  0  0  0
   -1.5686    3.3428   -0.9282 C   0  0  0  0  0  0
   -1.0495    2.0516   -0.8959 C   0  0  0  0  0  0
   -0.4156    1.5845    0.2555 C   0  0  0  0  0  0
    0.1743    0.1795    0.2906 C   0  0  0  0  0  0
    1.7085    0.1498    0.1262 C   0  0  2  0  0  0
    2.1329    0.8042   -1.1164 N   0  0  0  0  0  0
    3.3889    0.8851   -1.5931 C   0  0  0  0  0  0
    4.3487    0.3749   -1.0097 O   0  0  0  0  0  0
    3.5554    1.6785   -2.9184 C   0  0  2  0  0  0
    3.1608    3.1770   -2.7763 C   0  0  0  0  0  0
    3.4344    3.9342   -4.1076 C   0  0  0  0  0  0
    4.0632    2.9970   -5.1788 C   0  0  2  0  0  0
    3.0951    1.8045   -5.4264 C   0  0  0  0  0  0
    2.8098    1.0187   -4.1140 C   0  0  0  0  0  0
    5.3769    2.4172   -4.5799 C   0  0  0  0  0  0
    5.0679    1.6482   -3.2691 N   0  3  0  0  0  0
    2.2294   -1.2259    0.2542 C   0  0  0  0  0  0
    2.6370   -2.3043    0.3545 N   0  0  0  0  0  0
   -0.3052    2.4122    1.3719 C   0  0  0  0  0  0
   -0.8246    3.7031    1.3343 C   0  0  0  0  0  0
   -4.7481   11.5469    1.5625 H   0  0  0  0  0  0
   -3.9255   11.0795    3.0521 H   0  0  0  0  0  0
   -5.5275   10.4346    2.6890 H   0  0  0  0  0  0
   -2.9428    8.5607    3.1422 H   0  0  0  0  0  0
   -4.5386    7.9182    2.7703 H   0  0  0  0  0  0
   -2.5432    5.6483    2.2399 H   0  0  0  0  0  0
   -1.6400    5.8922   -1.9638 H   0  0  0  0  0  0
   -2.5478    8.1574   -2.0340 H   0  0  0  0  0  0
   -2.0641    3.6753   -1.8285 H   0  0  0  0  0  0
   -1.1405    1.4187   -1.7668 H   0  0  0  0  0  0
   -0.1087   -0.2945    1.2320 H   0  0  0  0  0  0
   -0.2945   -0.4307   -0.4839 H   0  0  0  0  0  0
    2.1494    0.7105    0.9526 H   0  0  0  0  0  0
    1.4272    1.3680   -1.5673 H   0  0  0  0  0  0
    2.1055    3.2730   -2.5137 H   0  0  0  0  0  0
    3.7160    3.6475   -1.9622 H   0  0  0  0  0  0
    2.5046    4.3577   -4.4908 H   0  0  0  0  0  0
    4.0907    4.7867   -3.9250 H   0  0  0  0  0  0
    4.2628    3.5391   -6.1044 H   0  0  0  0  0  0
    2.1594    2.1721   -5.8508 H   0  0  0  0  0  0
    3.5141    1.1344   -6.1790 H   0  0  0  0  0  0
    1.7342    0.9989   -3.9295 H   0  0  0  0  0  0
    3.1132   -0.0236   -4.2325 H   0  0  0  0  0  0
    5.8627    1.6966   -5.2390 H   0  0  0  0  0  0
    6.0964    3.1904   -4.3071 H   0  0  0  0  0  0
    5.3666    0.6881   -3.3687 H   0  0  0  0  0  0
    0.1888    2.0610    2.2665 H   0  0  0  0  0  0
   -0.7126    4.3277    2.2082 H   0  0  0  0  0  0
    5.5954    2.0564   -2.5101 H   0  0  0  0  0  0
  1  2  1  0  0  0
  1 33  1  0  0  0
  1 34  1  0  0  0
  1 35  1  0  0  0
  2  3  1  0  0  0
  2 10  1  0  0  0
  3  4  1  0  0  0
  3 36  1  0  0  0
  3 37  1  0  0  0
  4  5  2  0  0  0
  4  9  1  0  0  0
  5  6  1  0  0  0
  5 38  1  0  0  0
  6  7  2  0  0  0
  6 12  1  0  0  0
  7  8  1  0  0  0
  7 39  1  0  0  0
  8  9  2  0  0  0
  8 40  1  0  0  0
  9 10  1  0  0  0
 10 11  2  0  0  0
 12 13  2  0  0  0
 12 32  1  0  0  0
 13 14  1  0  0  0
 13 41  1  0  0  0
 14 15  2  0  0  0
 14 42  1  0  0  0
 15 16  1  0  0  0
 15 31  1  0  0  0
 16 17  1  0  0  0
 16 43  1  0  0  0
 16 44  1  0  0  0
 17 18  1  0  0  0
 17 29  1  0  0  0
 17 45  1  0  0  0
 18 19  1  0  0  0
 18 46  1  0  0  0
 19 20  2  0  0  0
 19 21  1  0  0  0
 21 22  1  0  0  0
 21 26  1  0  0  0
 21 28  1  0  0  0
 22 23  1  0  0  0
 22 47  1  0  0  0
 22 48  1  0  0  0
 23 24  1  0  0  0
 23 49  1  0  0  0
 23 50  1  0  0  0
 24 25  1  0  0  0
 24 27  1  0  0  0
 24 51  1  0  0  0
 25 26  1  0  0  0
 25 52  1  0  0  0
 25 53  1  0  0  0
 26 54  1  0  0  0
 26 55  1  0  0  0
 27 28  1  0  0  0
 27 56  1  0  0  0
 27 57  1  0  0  0
 28 58  1  0  0  0
 28 61  1  0  0  0
 29 30  3  0  0  0
 31 32  2  0  0  0
 31 59  1  0  0  0
 32 60  1  0  0  0
M  CHG  1  28   1
M  END
> <chembl_id>
CHEMBL3702570

> <chembl_pref_name>
None

> <i_m_ct_stereo_status>
1

> <s_m_source_file>
sdf/inactives_sanitized.sdf

> <i_m_source_file_index>
259

> <i_lp_mmshare_version>
49012

> <i_f3d_flags>
0

> <s_epik_input>
W0NIM11OKFtDSDJdMSlDKD1PKWMoYzEyKVtjSF1bY0hdYyhbY0hdMiktYzNbY0hdW2NIXWMoW2NIXVtjSF0zKVtDSDJdW0NAQEhdKEMjTilbTkhdQyg9TylbQ0BdNDVbQ0gyXVtDSDJdW0NASF0oW0NIMl1bQ0gyXTQpW0NIMl1bTkhdNQ==

> <s_epik_cmdline>
J2VwaWtfcHl0aG9uJywgJy1waHQnLCAnMC41JywgJy1waCcsICc3LjUnLCAnLW50JywgJy1tYScsICcyMDAnLCAnLWltYWUnLCAnPGluZmlsZS5tYWU+JywgJy1vbWFlJywgJzxvdXRmaWxlLm1hZT4n

> <r_epik_Ionization_Penalty>
  0.2492

> <r_epik_Ionization_Penalty_Charging>
  0.2491

> <r_epik_Ionization_Penalty_Neutral>
  0.0001

> <r_epik_State_Penalty>
  0.2404

> <r_epik_Charging_Adjusted_Penalty>
0.489493738808436

> <i_epik_Tot_Q>
1

> <i_epik_Tot_abs_Q>
1

> <s_lp_Force_Field>
OPLS3e

> <r_lp_Energy>
48.565005

> <b_lp_Chiralities_Consistent>
1

> <s_lp_Variant>
sdf/inactives_sanitized.sdf:259-1

$$$$
sdf/inactives_sanitized.sdf:259
                    3D
 Schrodinger Suite 2020-1.
 60 64  0  0  1  0            999 V2000
   -5.6541    9.8829   -1.5901 C   0  0  0  0  0  0
   -4.6800    8.9101   -1.1055 N   0  0  0  0  0  0
   -4.7561    7.5001   -1.4681 C   0  0  0  0  0  0
   -3.5706    6.9284   -0.7542 C   0  0  0  0  0  0
   -3.0793    5.6241   -0.6926 C   0  0  0  0  0  0
   -1.9302    5.3280    0.0613 C   0  0  0  0  0  0
   -1.2958    6.3800    0.7461 C   0  0  0  0  0  0
   -1.7862    7.6858    0.6837 C   0  0  0  0  0  0
   -2.9277    7.9429   -0.0725 C   0  0  0  0  0  0
   -3.6444    9.2364   -0.2986 C   0  0  0  0  0  0
   -3.3590   10.3484    0.1468 O   0  0  0  0  0  0
   -1.3959    3.9338    0.1320 C   0  0  0  0  0  0
   -1.4871    3.0746   -0.9718 C   0  0  0  0  0  0
   -0.9819    1.7792   -0.9113 C   0  0  0  0  0  0
   -0.3751    1.3220    0.2587 C   0  0  0  0  0  0
    0.2226   -0.0788    0.3151 C   0  0  0  0  0  0
    1.7597   -0.1047    0.1531 C   0  0  2  0  0  0
    2.2070    0.5047   -1.1029 N   0  0  0  0  0  0
    2.6812    1.7586   -1.2391 C   0  0  0  0  0  0
    2.8407    2.5048   -0.2695 O   0  0  0  0  0  0
    2.9833    2.2746   -2.6742 C   0  0  2  0  0  0
    2.0394    3.4753   -3.0069 C   0  0  0  0  0  0
    2.3990    4.0771   -4.3944 C   0  0  0  0  0  0
    3.6002    3.3166   -5.0188 C   0  0  2  0  0  0
    3.2261    1.8164   -5.1789 C   0  0  0  0  0  0
    2.8554    1.1959   -3.8013 C   0  0  0  0  0  0
    4.7544    3.3825   -3.9731 C   0  0  0  0  0  0
    4.3765    2.7676   -2.6831 N   0  0  2  0  0  0
    2.3001   -1.4695    0.2625 C   0  0  0  0  0  0
    2.7244   -2.5427    0.3481 N   0  0  0  0  0  0
   -0.2828    2.1618    1.3677 C   0  0  0  0  0  0
   -0.7886    3.4568    1.3022 C   0  0  0  0  0  0
   -5.4618   10.8908   -1.2191 H   0  0  0  0  0  0
   -6.6576    9.5945   -1.2761 H   0  0  0  0  0  0
   -5.6378    9.9160   -2.6796 H   0  0  0  0  0  0
   -5.7015    7.0700   -1.1353 H   0  0  0  0  0  0
   -4.7022    7.3792   -2.5506 H   0  0  0  0  0  0
   -3.5965    4.8372   -1.2216 H   0  0  0  0  0  0
   -0.4041    6.1945    1.3267 H   0  0  0  0  0  0
   -1.2760    8.4745    1.2174 H   0  0  0  0  0  0
   -1.9360    3.4112   -1.8946 H   0  0  0  0  0  0
   -1.0482    1.1404   -1.7801 H   0  0  0  0  0  0
   -0.0587   -0.5411    1.2627 H   0  0  0  0  0  0
   -0.2426   -0.7024   -0.4507 H   0  0  0  0  0  0
    2.2028    0.4175    1.0040 H   0  0  0  0  0  0
    2.0063   -0.0177   -1.9429 H   0  0  0  0  0  0
    0.9969    3.1509   -3.0076 H   0  0  0  0  0  0
    2.1089    4.2560   -2.2462 H   0  0  0  0  0  0
    1.5372    4.0242   -5.0615 H   0  0  0  0  0  0
    2.6359    5.1377   -4.2955 H   0  0  0  0  0  0
    3.9006    3.7578   -5.9699 H   0  0  0  0  0  0
    2.3921    1.7125   -5.8746 H   0  0  0  0  0  0
    4.0573    1.2693   -5.6262 H   0  0  0  0  0  0
    1.8374    0.8041   -3.8425 H   0  0  0  0  0  0
    3.5036    0.3412   -3.5984 H   0  0  0  0  0  0
    5.6402    2.8734   -4.3554 H   0  0  0  0  0  0
    5.0456    4.4181   -3.7936 H   0  0  0  0  0  0
    4.9963    1.9863   -2.5233 H   0  0  0  0  0  0
    0.1899    1.8174    2.2760 H   0  0  0  0  0  0
   -0.7078    4.0869    2.1757 H   0  0  0  0  0  0
  1  2  1  0  0  0
  1 33  1  0  0  0
  1 34  1  0  0  0
  1 35  1  0  0  0
  2  3  1  0  0  0
  2 10  1  0  0  0
  3  4  1  0  0  0
  3 36  1  0  0  0
  3 37  1  0  0  0
  4  5  2  0  0  0
  4  9  1  0  0  0
  5  6  1  0  0  0
  5 38  1  0  0  0
  6  7  2  0  0  0
  6 12  1  0  0  0
  7  8  1  0  0  0
  7 39  1  0  0  0
  8  9  2  0  0  0
  8 40  1  0  0  0
  9 10  1  0  0  0
 10 11  2  0  0  0
 12 13  2  0  0  0
 12 32  1  0  0  0
 13 14  1  0  0  0
 13 41  1  0  0  0
 14 15  2  0  0  0
 14 42  1  0  0  0
 15 16  1  0  0  0
 15 31  1  0  0  0
 16 17  1  0  0  0
 16 43  1  0  0  0
 16 44  1  0  0  0
 17 18  1  0  0  0
 17 29  1  0  0  0
 17 45  1  0  0  0
 18 19  1  0  0  0
 18 46  1  0  0  0
 19 20  2  0  0  0
 19 21  1  0  0  0
 21 22  1  0  0  0
 21 26  1  0  0  0
 21 28  1  0  0  0
 22 23  1  0  0  0
 22 47  1  0  0  0
 22 48  1  0  0  0
 23 24  1  0  0  0
 23 49  1  0  0  0
 23 50  1  0  0  0
 24 25  1  0  0  0
 24 27  1  0  0  0
 24 51  1  0  0  0
 25 26  1  0  0  0
 25 52  1  0  0  0
 25 53  1  0  0  0
 26 54  1  0  0  0
 26 55  1  0  0  0
 27 28  1  0  0  0
 27 56  1  0  0  0
 27 57  1  0  0  0
 28 58  1  0  0  0
 29 30  3  0  0  0
 31 32  2  0  0  0
 31 59  1  0  0  0
 32 60  1  0  0  0
M  END
> <chembl_id>
CHEMBL3702570

> <chembl_pref_name>
None

> <i_m_ct_stereo_status>
1

> <s_m_source_file>
sdf/inactives_sanitized.sdf

> <i_m_source_file_index>
259

> <i_lp_mmshare_version>
49012

> <i_f3d_flags>
0

> <s_epik_input>
W0NIM11OKFtDSDJdMSlDKD1PKWMoYzEyKVtjSF1bY0hdYyhbY0hdMiktYzNbY0hdW2NIXWMoW2NIXVtjSF0zKVtDSDJdW0NAQEhdKEMjTilbTkhdQyg9TylbQ0BdNDVbQ0gyXVtDSDJdW0NASF0oW0NIMl1bQ0gyXTQpW0NIMl1bTkhdNQ==

> <s_epik_cmdline>
J2VwaWtfcHl0aG9uJywgJy1waHQnLCAnMC41JywgJy1waCcsICc3LjUnLCAnLW50JywgJy1tYScsICcyMDAnLCAnLWltYWUnLCAnPGluZmlsZS5tYWU+JywgJy1vbWFlJywgJzxvdXRmaWxlLm1hZT4n

> <r_epik_Ionization_Penalty>
  0.6336

> <r_epik_Ionization_Penalty_Charging>
  0.0000

> <r_epik_Ionization_Penalty_Neutral>
  0.6336

> <r_epik_State_Penalty>
  0.6506

> <r_epik_Charging_Adjusted_Penalty>
0.650608926039391

> <i_epik_Tot_Q>
0

> <i_epik_Tot_abs_Q>
0

> <s_lp_Force_Field>
OPLS3e

> <r_lp_Energy>
49.29623

> <b_lp_Chiralities_Consistent>
1

> <s_lp_Variant>
sdf/inactives_sanitized.sdf:259-2

$$$$
sdf/inactives_sanitized.sdf:260
                    3D
 Schrodinger Suite 2020-1.
 46 47  0  0  1  0            999 V2000
    0.0002    0.0836    0.0027 C   0  0  2  0  0  0
    1.5373    0.2091   -0.0090 C   0  0  0  0  0  0
    2.2344   -0.7814   -0.2382 O   0  0  0  0  0  0
    2.0396    1.4206    0.2828 N   0  0  0  0  0  0
    3.4654    1.7333    0.2908 C   0  0  0  0  0  0
    4.0857    1.6260   -1.0419 C   0  0  0  0  0  0
    4.5728    1.5420   -2.0880 N   0  0  0  0  0  0
   -0.4732   -0.6798    1.2702 C   0  0  0  0  0  0
   -2.0033   -0.9093    1.3893 C   0  0  0  0  0  0
   -0.4408   -0.5777   -1.2300 N   0  0  0  0  0  0
   -2.8152    0.4075    1.4607 C   0  0  0  0  0  0
   -4.3318    0.1323    1.5049 C   0  0  0  0  0  0
   -4.7079   -0.8050    2.6725 C   0  0  0  0  0  0
   -3.8526   -2.0900    2.6952 C   0  0  0  0  0  0
   -2.3453   -1.7692    2.6285 C   0  0  0  0  0  0
   -1.2758   -0.0648   -2.1540 C   0  0  0  0  0  0
   -1.5948   -0.9581   -3.3327 C   0  0  0  0  0  0
   -1.7878    1.0525   -2.0547 O   0  0  0  0  0  0
   -2.7661   -0.7386   -4.0722 C   0  0  0  0  0  0
   -3.0762   -1.5474   -5.1623 C   0  0  0  0  0  0
   -2.2161   -2.5807   -5.5227 C   0  0  0  0  0  0
   -1.0471   -2.8108   -4.8033 C   0  0  0  0  0  0
   -0.7353   -2.0024   -3.7133 C   0  0  0  0  0  0
   -0.4145    1.0921    0.0528 H   0  0  0  0  0  0
    1.4040    2.1889    0.4430 H   0  0  0  0  0  0
    3.6010    2.7560    0.6423 H   0  0  0  0  0  0
    4.0012    1.0821    0.9833 H   0  0  0  0  0  0
    0.0108   -1.6589    1.2857 H   0  0  0  0  0  0
   -0.1264   -0.1563    2.1636 H   0  0  0  0  0  0
   -2.3437   -1.4590    0.5096 H   0  0  0  0  0  0
   -0.0577   -1.4991   -1.3826 H   0  0  0  0  0  0
   -2.5939    1.0431    0.6045 H   0  0  0  0  0  0
   -2.5025    0.9926    2.3271 H   0  0  0  0  0  0
   -4.8782    1.0720    1.5918 H   0  0  0  0  0  0
   -4.6461   -0.3165    0.5614 H   0  0  0  0  0  0
   -4.5769   -0.2715    3.6153 H   0  0  0  0  0  0
   -5.7661   -1.0632    2.6158 H   0  0  0  0  0  0
   -4.0715   -2.6661    3.5949 H   0  0  0  0  0  0
   -4.1278   -2.7254    1.8519 H   0  0  0  0  0  0
   -1.7758   -2.6993    2.6015 H   0  0  0  0  0  0
   -2.0145   -1.2673    3.5394 H   0  0  0  0  0  0
   -3.4487    0.0566   -3.8068 H   0  0  0  0  0  0
   -3.9810   -1.3732   -5.7261 H   0  0  0  0  0  0
   -2.4571   -3.2077   -6.3686 H   0  0  0  0  0  0
   -0.3828   -3.6123   -5.0909 H   0  0  0  0  0  0
    0.1827   -2.1963   -3.1770 H   0  0  0  0  0  0
  1  2  1  0  0  0
  1  8  1  0  0  0
  1 10  1  0  0  0
  1 24  1  0  0  0
  2  4  1  0  0  0
  2  3  2  0  0  0
  4  5  1  0  0  0
  4 25  1  0  0  0
  5  6  1  0  0  0
  5 26  1  0  0  0
  5 27  1  0  0  0
  6  7  3  0  0  0
  8  9  1  0  0  0
  8 28  1  0  0  0
  8 29  1  0  0  0
  9 15  1  0  0  0
  9 11  1  0  0  0
  9 30  1  0  0  0
 10 16  1  0  0  0
 10 31  1  0  0  0
 11 12  1  0  0  0
 11 32  1  0  0  0
 11 33  1  0  0  0
 12 13  1  0  0  0
 12 34  1  0  0  0
 12 35  1  0  0  0
 13 14  1  0  0  0
 13 36  1  0  0  0
 13 37  1  0  0  0
 14 15  1  0  0  0
 14 38  1  0  0  0
 14 39  1  0  0  0
 15 40  1  0  0  0
 15 41  1  0  0  0
 16 17  1  0  0  0
 16 18  2  0  0  0
 17 19  2  0  0  0
 17 23  1  0  0  0
 19 20  1  0  0  0
 19 42  1  0  0  0
 20 21  2  0  0  0
 20 43  1  0  0  0
 21 22  1  0  0  0
 21 44  1  0  0  0
 22 23  2  0  0  0
 22 45  1  0  0  0
 23 46  1  0  0  0
M  END
> <chembl_id>
CHEMBL200884

> <chembl_pref_name>
None

> <i_m_ct_stereo_status>
1

> <s_m_source_file>
sdf/inactives_sanitized.sdf

> <i_m_source_file_index>
260

> <i_lp_mmshare_version>
49012

> <i_f3d_flags>
0

> <s_epik_input>
W0NIMl0xW0NIMl1bQ0gyXVtDSDJdW0NIMl1bQ0hdMVtDSDJdW0NAQEhdKEMoPU8pW05IXVtDSDJdQyNOKVtOSF1DKD1PKWMyW2NIXVtjSF1bY0hdW2NIXVtjSF0y

> <s_epik_cmdline>
J2VwaWtfcHl0aG9uJywgJy1waHQnLCAnMC41JywgJy1waCcsICc3LjUnLCAnLW50JywgJy1tYScsICcyMDAnLCAnLWltYWUnLCAnPGluZmlsZS5tYWU+JywgJy1vbWFlJywgJzxvdXRmaWxlLm1hZT4n

> <r_lp_tautomer_probability>
1

> <r_epik_Ionization_Penalty>
  0.0000

> <r_epik_Ionization_Penalty_Charging>
  0.0000

> <r_epik_Ionization_Penalty_Neutral>
  0.0000

> <r_epik_State_Penalty>
 -0.0000

> <r_epik_Charging_Adjusted_Penalty>
0

> <i_epik_Tot_Q>
0

> <i_epik_Tot_abs_Q>
0

> <s_lp_Force_Field>
OPLS3e

> <r_lp_Energy>
23.339222

> <b_lp_Chiralities_Consistent>
1

> <s_lp_Variant>
sdf/inactives_sanitized.sdf:260-1

$$$$
sdf/inactives_sanitized.sdf:261
                    3D
 Schrodinger Suite 2020-1.
 70 75  0  0  1  0            999 V2000
    0.3177    5.6711   -3.7385 Cl  0  0  0  0  0  0
   -0.0764    4.7181   -2.3548 C   0  0  0  0  0  0
   -1.4112    4.4541   -2.0550 C   0  0  0  0  0  0
   -1.7306    3.6833   -0.9407 C   0  0  0  0  0  0
   -0.7135    3.1719   -0.1252 C   0  0  0  0  0  0
    0.6235    3.4453   -0.4343 C   0  0  0  0  0  0
    0.9425    4.2165   -1.5478 C   0  0  0  0  0  0
   -1.0332    2.3080    1.1021 C   0  0  0  0  0  0
   -1.2272    3.0118    2.4458 C   0  0  0  0  0  0
   -2.4045    2.3666    1.7780 C   0  0  0  0  0  0
   -0.4170    0.8722    1.2023 C   0  0  0  0  0  0
   -0.1422    0.4171    2.3166 O   0  0  0  0  0  0
   -0.1076    0.1737    0.0735 N   0  0  0  0  0  0
   -0.7834    0.3582   -1.2145 C   0  0  0  0  0  0
   -1.1628   -1.0640   -1.6277 C   0  0  1  0  0  0
   -0.0374   -1.9348   -1.0819 C   0  0  0  0  0  0
    0.5458   -1.1537    0.1167 C   0  0  1  0  0  0
    2.0769   -0.9794    0.0419 C   0  0  0  0  0  0
    2.6000   -0.4722   -0.9533 O   0  0  0  0  0  0
    2.7780   -1.4015    1.1099 N   0  0  0  0  0  0
    4.2230   -1.2171    1.2871 C   0  0  0  0  0  0
    5.0003   -2.3787    1.8746 C   0  0  0  0  0  0
    5.1379   -2.0586    0.4077 C   0  0  0  0  0  0
    4.6985    0.2105    1.6472 C   0  0  0  0  0  0
    5.5983    0.7990    1.0424 O   0  0  0  0  0  0
    3.9680    0.8581    2.8863 C   0  0  0  0  0  0
    3.5179    0.1658    3.8006 O   0  0  0  0  0  0
    3.8993    2.1975    2.7840 N   0  0  0  0  0  0
    3.3565    3.0843    3.8089 C   0  0  0  0  0  0
    1.9587    2.8580    4.3489 C   0  0  0  0  0  0
    2.2313    4.0178    3.4233 C   0  0  0  0  0  0
   -2.8217   -1.5948   -0.8483 S   0  0  0  0  0  0
   -3.2808   -2.8189   -1.5136 O   0  0  0  0  0  0
   -2.6809   -1.5762    0.6128 O   0  0  0  0  0  0
   -3.9726   -0.2812   -1.2999 C   0  0  0  0  0  0
   -4.5045    0.5224   -0.2840 C   0  0  0  0  0  0
   -5.3680    1.5736   -0.5867 C   0  0  0  0  0  0
   -5.7145    1.8297   -1.9108 C   0  0  0  0  0  0
   -5.2003    1.0305   -2.9300 C   0  0  0  0  0  0
   -4.3331   -0.0244   -2.6359 C   0  0  0  0  0  0
   -3.7429   -0.9735   -3.9560 Cl  0  0  0  0  0  0
   -2.1985    4.8412   -2.6850 H   0  0  0  0  0  0
   -2.7690    3.4752   -0.7332 H   0  0  0  0  0  0
    1.4174    3.0528    0.1846 H   0  0  0  0  0  0
    1.9769    4.4206   -1.7831 H   0  0  0  0  0  0
   -0.8566    2.5784    3.3747 H   0  0  0  0  0  0
   -1.1660    4.1002    2.4670 H   0  0  0  0  0  0
   -2.8273    1.4696    2.2333 H   0  0  0  0  0  0
   -3.1863    3.0147    1.3843 H   0  0  0  0  0  0
   -1.6345    1.0361   -1.2351 H   0  0  0  0  0  0
   -0.0195    0.6936   -1.9177 H   0  0  0  0  0  0
   -1.3057   -1.1715   -2.7014 H   0  0  0  0  0  0
   -0.3859   -2.9308   -0.8064 H   0  0  0  0  0  0
    0.6835   -2.0660   -1.8917 H   0  0  0  0  0  0
    0.3373   -1.6575    1.0628 H   0  0  0  0  0  0
    2.2592   -1.6484    1.9406 H   0  0  0  0  0  0
    5.8488   -2.1786    2.5307 H   0  0  0  0  0  0
    4.4558   -3.2755    2.1719 H   0  0  0  0  0  0
    6.0856   -1.6492    0.0556 H   0  0  0  0  0  0
    4.6883   -2.7304   -0.3242 H   0  0  0  0  0  0
    4.3465    2.6416    1.9949 H   0  0  0  0  0  0
    4.1127    3.4537    4.5028 H   0  0  0  0  0  0
    1.3870    2.0056    3.9825 H   0  0  0  0  0  0
    1.7785    3.0512    5.4064 H   0  0  0  0  0  0
    1.8430    3.9832    2.4052 H   0  0  0  0  0  0
    2.2384    5.0296    3.8287 H   0  0  0  0  0  0
   -4.2523    0.3414    0.7496 H   0  0  0  0  0  0
   -5.7679    2.1888    0.2059 H   0  0  0  0  0  0
   -6.3840    2.6437   -2.1470 H   0  0  0  0  0  0
   -5.4782    1.2324   -3.9542 H   0  0  0  0  0  0
  1  2  1  0  0  0
  2  3  2  0  0  0
  2  7  1  0  0  0
  3  4  1  0  0  0
  3 42  1  0  0  0
  4  5  2  0  0  0
  4 43  1  0  0  0
  5  6  1  0  0  0
  5  8  1  0  0  0
  6  7  2  0  0  0
  6 44  1  0  0  0
  7 45  1  0  0  0
  8  9  1  0  0  0
  8 10  1  0  0  0
  8 11  1  0  0  0
  9 10  1  0  0  0
  9 46  1  0  0  0
  9 47  1  0  0  0
 10 48  1  0  0  0
 10 49  1  0  0  0
 11 12  2  0  0  0
 11 13  1  0  0  0
 13 14  1  0  0  0
 13 17  1  0  0  0
 14 15  1  0  0  0
 14 50  1  0  0  0
 14 51  1  0  0  0
 15 16  1  0  0  0
 15 32  1  0  0  0
 15 52  1  0  0  0
 16 17  1  0  0  0
 16 53  1  0  0  0
 16 54  1  0  0  0
 17 18  1  0  0  0
 17 55  1  0  0  0
 18 19  2  0  0  0
 18 20  1  0  0  0
 20 21  1  0  0  0
 20 56  1  0  0  0
 21 22  1  0  0  0
 21 23  1  0  0  0
 21 24  1  0  0  0
 22 23  1  0  0  0
 22 57  1  0  0  0
 22 58  1  0  0  0
 23 59  1  0  0  0
 23 60  1  0  0  0
 24 25  2  0  0  0
 24 26  1  0  0  0
 26 27  2  0  0  0
 26 28  1  0  0  0
 28 29  1  0  0  0
 28 61  1  0  0  0
 29 30  1  0  0  0
 29 31  1  0  0  0
 29 62  1  0  0  0
 30 31  1  0  0  0
 30 63  1  0  0  0
 30 64  1  0  0  0
 31 65  1  0  0  0
 31 66  1  0  0  0
 32 33  2  0  0  0
 32 34  2  0  0  0
 32 35  1  0  0  0
 35 36  2  0  0  0
 35 40  1  0  0  0
 36 37  1  0  0  0
 36 67  1  0  0  0
 37 38  2  0  0  0
 37 68  1  0  0  0
 38 39  1  0  0  0
 38 69  1  0  0  0
 39 40  2  0  0  0
 39 70  1  0  0  0
 40 41  1  0  0  0
M  END
> <chembl_id>
CHEMBL3649388

> <chembl_pref_name>
None

> <i_m_ct_stereo_status>
1

> <s_m_source_file>
sdf/inactives_sanitized.sdf

> <i_m_source_file_index>
261

> <i_lp_mmshare_version>
49012

> <i_f3d_flags>
0

> <s_epik_input>
Q2xjMVtjSF1bY0hdYyhbY0hdW2NIXTEpQzIoW0NIMl1bQ0gyXTIpQyg9TylOM1tDSDJdW0NASF0oUyg9TykoPU8pYzRbY0hdW2NIXVtjSF1bY0hdYzRDbClbQ0gyXVtDQEhdM0MoPU8pW05IXUM1KFtDSDJdW0NIMl01KUMoPU8pQyg9TylbTkhdW0NIXTZbQ0gyXVtDSDJdNg==

> <s_epik_cmdline>
J2VwaWtfcHl0aG9uJywgJy1waHQnLCAnMC41JywgJy1waCcsICc3LjUnLCAnLW50JywgJy1tYScsICcyMDAnLCAnLWltYWUnLCAnPGluZmlsZS5tYWU+JywgJy1vbWFlJywgJzxvdXRmaWxlLm1hZT4n

> <r_lp_tautomer_probability>
1

> <r_epik_Ionization_Penalty>
  0.0000

> <r_epik_Ionization_Penalty_Charging>
  0.0000

> <r_epik_Ionization_Penalty_Neutral>
  0.0000

> <r_epik_State_Penalty>
 -0.0000

> <r_epik_Charging_Adjusted_Penalty>
0

> <i_epik_Tot_Q>
0

> <i_epik_Tot_abs_Q>
0

> <s_lp_Force_Field>
OPLS3e

> <r_lp_Energy>
45.242138

> <b_lp_Chiralities_Consistent>
1

> <s_lp_Variant>
sdf/inactives_sanitized.sdf:261-1

$$$$
sdf/inactives_sanitized.sdf:262
                    3D
 Schrodinger Suite 2020-1.
 57 60  0  0  1  0            999 V2000
    3.8152    0.4056   -0.9750 C   0  0  0  0  0  0
    4.2912   -1.0179   -1.2033 C   0  0  0  0  0  0
    4.5873    0.0468   -2.2269 C   0  0  0  0  0  0
   -3.3379   -0.1871    1.4987 S   0  0  0  0  0  0
   -3.3810    0.4849    2.8025 O   0  0  0  0  0  0
   -4.0489    0.3905    0.3522 O   0  0  0  0  0  0
   -1.5154   -0.4652    1.0295 C   0  0  2  0  0  0
   -0.7993    0.8791    0.7796 C   0  0  0  0  0  0
   -0.0060    0.7192   -0.5416 C   0  0  2  0  0  0
   -0.8056   -0.3454   -1.3502 C   0  0  1  0  0  0
   -1.3582   -1.2965   -0.2618 C   0  0  0  0  0  0
    1.4389    0.2162   -0.2831 C   0  0  0  0  0  0
   -1.9709    0.2708   -2.1845 C   0  0  0  0  0  0
   -2.2778    1.4531   -2.0064 O   0  0  0  0  0  0
   -2.7111   -0.5431   -2.9890 N   0  0  0  0  0  0
    2.3888    0.6906   -1.1077 N   0  0  0  0  0  0
    1.7011   -0.5086    0.6791 O   0  0  0  0  0  0
    4.5027    1.1750    0.0774 C   0  0  0  0  0  0
    5.0420    1.7795    0.9036 N   0  0  0  0  0  0
   -3.9697   -1.8460    1.7453 C   0  0  0  0  0  0
   -4.7212   -2.4684    0.7446 C   0  0  0  0  0  0
   -5.2008   -3.7602    0.9434 C   0  0  0  0  0  0
   -4.9272   -4.4221    2.1388 C   0  0  0  0  0  0
   -4.1782   -3.8045    3.1386 C   0  0  0  0  0  0
   -3.6974   -2.5126    2.9420 C   0  0  0  0  0  0
   -3.8250    0.0037   -3.7867 C   0  0  0  0  0  0
   -3.2623    0.3313   -5.1907 C   0  0  0  0  0  0
   -2.5809   -0.8922   -5.8429 C   0  0  0  0  0  0
   -1.5844   -1.5749   -4.8798 C   0  0  0  0  0  0
   -2.2141   -1.8374   -3.4916 C   0  0  0  0  0  0
    5.1123   -1.4016   -0.5970 H   0  0  0  0  0  0
    3.5615   -1.7897   -1.4511 H   0  0  0  0  0  0
    5.6132    0.4019   -2.3302 H   0  0  0  0  0  0
    4.0629    0.0073   -3.1823 H   0  0  0  0  0  0
   -1.0734   -0.9923    1.8760 H   0  0  0  0  0  0
   -1.5221    1.6839    0.6382 H   0  0  0  0  0  0
   -0.1743    1.1786    1.6233 H   0  0  0  0  0  0
    0.0972    1.6791   -1.0537 H   0  0  0  0  0  0
   -0.1650   -0.8425   -2.0815 H   0  0  0  0  0  0
   -2.2720   -1.8178   -0.5482 H   0  0  0  0  0  0
   -0.6265   -2.0889   -0.0974 H   0  0  0  0  0  0
    2.1324    1.3927   -1.7864 H   0  0  0  0  0  0
   -4.9315   -1.9602   -0.1854 H   0  0  0  0  0  0
   -5.7822   -4.2468    0.1741 H   0  0  0  0  0  0
   -5.2995   -5.4242    2.2920 H   0  0  0  0  0  0
   -3.9711   -4.3256    4.0616 H   0  0  0  0  0  0
   -3.1146   -2.0344    3.7160 H   0  0  0  0  0  0
   -4.5819   -0.7789   -3.8555 H   0  0  0  0  0  0
   -4.3413    0.8265   -3.2894 H   0  0  0  0  0  0
   -4.0694    0.6878   -5.8312 H   0  0  0  0  0  0
   -2.5564    1.1604   -5.1180 H   0  0  0  0  0  0
   -3.3464   -1.6130   -6.1340 H   0  0  0  0  0  0
   -2.0748   -0.5972   -6.7629 H   0  0  0  0  0  0
   -1.2469   -2.5182   -5.3100 H   0  0  0  0  0  0
   -0.6872   -0.9639   -4.7681 H   0  0  0  0  0  0
   -1.5820   -2.3762   -2.7865 H   0  0  0  0  0  0
   -3.0844   -2.4872   -3.5937 H   0  0  0  0  0  0
  1  2  1  0  0  0
  1  3  1  0  0  0
  1 16  1  0  0  0
  1 18  1  0  0  0
  2  3  1  0  0  0
  2 31  1  0  0  0
  2 32  1  0  0  0
  3 33  1  0  0  0
  3 34  1  0  0  0
  4  5  2  0  0  0
  4  6  2  0  0  0
  4  7  1  0  0  0
  4 20  1  0  0  0
  7  8  1  0  0  0
  7 11  1  0  0  0
  7 35  1  0  0  0
  8  9  1  0  0  0
  8 36  1  0  0  0
  8 37  1  0  0  0
  9 10  1  0  0  0
  9 12  1  0  0  0
  9 38  1  0  0  0
 10 11  1  0  0  0
 10 13  1  0  0  0
 10 39  1  0  0  0
 11 40  1  0  0  0
 11 41  1  0  0  0
 12 16  1  0  0  0
 12 17  2  0  0  0
 13 14  2  0  0  0
 13 15  1  0  0  0
 15 26  1  0  0  0
 15 30  1  0  0  0
 16 42  1  0  0  0
 18 19  3  0  0  0
 20 21  2  0  0  0
 20 25  1  0  0  0
 21 22  1  0  0  0
 21 43  1  0  0  0
 22 23  2  0  0  0
 22 44  1  0  0  0
 23 24  1  0  0  0
 23 45  1  0  0  0
 24 25  2  0  0  0
 24 46  1  0  0  0
 25 47  1  0  0  0
 26 27  1  0  0  0
 26 48  1  0  0  0
 26 49  1  0  0  0
 27 28  1  0  0  0
 27 50  1  0  0  0
 27 51  1  0  0  0
 28 29  1  0  0  0
 28 52  1  0  0  0
 28 53  1  0  0  0
 29 30  1  0  0  0
 29 54  1  0  0  0
 29 55  1  0  0  0
 30 56  1  0  0  0
 30 57  1  0  0  0
M  END
> <chembl_id>
CHEMBL3093825

> <chembl_pref_name>
None

> <i_m_ct_stereo_status>
1

> <s_m_source_file>
sdf/inactives_sanitized.sdf

> <i_m_source_file_index>
262

> <i_lp_mmshare_version>
49012

> <i_f3d_flags>
0

> <s_epik_input>
W0NIMl0xW0NIMl1bQ0gyXVtDSDJdW0NIMl1OMUMoPU8pW0NASF0oW0NIMl0yKVtDQEhdKEMoPU8pW05IXUMzKEMjTilbQ0gyXVtDSDJdMylbQ0gyXVtDQEhdMlMoPU8pKD1PKWM0W2NIXVtjSF1bY0hdW2NIXVtjSF00

> <s_epik_cmdline>
J2VwaWtfcHl0aG9uJywgJy1waHQnLCAnMC41JywgJy1waCcsICc3LjUnLCAnLW50JywgJy1tYScsICcyMDAnLCAnLWltYWUnLCAnPGluZmlsZS5tYWU+JywgJy1vbWFlJywgJzxvdXRmaWxlLm1hZT4n

> <r_lp_tautomer_probability>
1

> <r_epik_Ionization_Penalty>
  0.0000

> <r_epik_Ionization_Penalty_Charging>
  0.0000

> <r_epik_Ionization_Penalty_Neutral>
  0.0000

> <r_epik_State_Penalty>
 -0.0000

> <r_epik_Charging_Adjusted_Penalty>
0

> <i_epik_Tot_Q>
0

> <i_epik_Tot_abs_Q>
0

> <s_lp_Force_Field>
OPLS3e

> <r_lp_Energy>
22.03606

> <b_lp_Chiralities_Consistent>
1

> <s_lp_Variant>
sdf/inactives_sanitized.sdf:262-1

$$$$
sdf/inactives_sanitized.sdf:263
                    3D
 Schrodinger Suite 2020-1.
 55 58  0  0  1  0            999 V2000
    0.0638    0.3635   -0.0312 C   0  0  0  0  0  0
   -0.4842   -0.9063   -0.2411 C   0  0  0  0  0  0
   -1.8619   -1.1146   -0.3114 C   0  0  0  0  0  0
   -0.7775    1.4827    0.1041 C   0  0  0  0  0  0
   -2.1622    1.2811    0.0316 C   0  0  0  0  0  0
   -2.7111   -0.0091   -0.1734 C   0  0  0  0  0  0
   -4.0680   -0.0584   -0.2251 N   0  0  0  0  0  0
   -4.6021    1.1207   -0.0705 C   0  0  0  0  0  0
   -3.4746    2.4430    0.1490 S   0  0  0  0  0  0
   -6.3373    1.4000   -0.1282 S   0  0  0  0  0  0
   -6.6387    1.5046    1.6723 C   0  0  0  0  0  0
   -6.4862    2.9410    2.2219 C   0  0  0  0  0  0
   -6.2181    3.8755    1.4622 O   0  0  0  0  0  0
    1.4710    0.4160    0.0042 N   0  0  0  0  0  0
    2.2921    1.4380    0.3342 C   0  0  0  0  0  0
    3.8057    1.1039    0.2138 C   0  0  2  0  0  0
    1.9272    2.5495    0.7270 O   0  0  0  0  0  0
    4.5292    2.0347    1.1467 N   0  3  0  0  0  0
    4.3440    1.2166   -1.2548 C   0  0  0  0  0  0
    3.4126    0.7239   -2.3864 C   0  0  0  0  0  0
    5.6947    0.4882   -1.3857 C   0  0  0  0  0  0
   -6.6888    3.1368    3.6967 C   0  0  0  0  0  0
   -6.5578    4.4214    4.2424 C   0  0  0  0  0  0
   -7.2071    2.2670    5.9115 C   0  0  0  0  0  0
   -7.0123    2.0712    4.5471 C   0  0  0  0  0  0
   -7.0810    3.5569    6.4766 C   0  0  0  0  0  0
   -6.7484    4.6542    5.6270 C   0  0  0  0  0  0
   -6.6183    5.9481    6.1919 C   0  0  0  0  0  0
   -6.8148    6.1428    7.5567 C   0  0  0  0  0  0
   -7.1415    5.0731    8.3839 C   0  0  0  0  0  0
   -7.2758    3.7893    7.8612 C   0  0  0  0  0  0
    0.1671   -1.7623   -0.3526 H   0  0  0  0  0  0
   -2.2593   -2.1061   -0.4725 H   0  0  0  0  0  0
   -0.3996    2.4824    0.2457 H   0  0  0  0  0  0
   -7.6493    1.1516    1.8760 H   0  0  0  0  0  0
   -5.9579    0.8322    2.1952 H   0  0  0  0  0  0
    1.9215   -0.4509   -0.2507 H   0  0  0  0  0  0
    4.0264    0.1260    0.6464 H   0  0  0  0  0  0
    4.1837    1.8975    2.0861 H   0  0  0  0  0  0
    4.3688    2.9873    0.8509 H   0  0  0  0  0  0
    4.5332    2.2717   -1.4634 H   0  0  0  0  0  0
    3.1182   -0.3154   -2.2365 H   0  0  0  0  0  0
    3.9062    0.7866   -3.3568 H   0  0  0  0  0  0
    2.5072    1.3269   -2.4603 H   0  0  0  0  0  0
    5.5909   -0.5800   -1.1921 H   0  0  0  0  0  0
    6.4282    0.8835   -0.6827 H   0  0  0  0  0  0
    6.1134    0.6032   -2.3860 H   0  0  0  0  0  0
   -6.3087    5.2665    3.6148 H   0  0  0  0  0  0
   -7.4576    1.4296    6.5472 H   0  0  0  0  0  0
   -7.1231    1.0654    4.1695 H   0  0  0  0  0  0
   -6.3651    6.7853    5.5571 H   0  0  0  0  0  0
   -6.7132    7.1327    7.9771 H   0  0  0  0  0  0
   -7.2919    5.2402    9.4405 H   0  0  0  0  0  0
   -7.5296    2.9638    8.5108 H   0  0  0  0  0  0
    5.5174    1.8292    1.1136 H   0  0  0  0  0  0
  1  2  2  0  0  0
  1  4  1  0  0  0
  1 14  1  0  0  0
  2  3  1  0  0  0
  2 32  1  0  0  0
  3  6  2  0  0  0
  3 33  1  0  0  0
  4  5  2  0  0  0
  4 34  1  0  0  0
  5  6  1  0  0  0
  5  9  1  0  0  0
  6  7  1  0  0  0
  7  8  2  0  0  0
  8  9  1  0  0  0
  8 10  1  0  0  0
 10 11  1  0  0  0
 11 12  1  0  0  0
 11 35  1  0  0  0
 11 36  1  0  0  0
 12 13  2  0  0  0
 12 22  1  0  0  0
 14 15  1  0  0  0
 14 37  1  0  0  0
 15 16  1  0  0  0
 15 17  2  0  0  0
 16 18  1  0  0  0
 16 19  1  0  0  0
 16 38  1  0  0  0
 18 39  1  0  0  0
 18 40  1  0  0  0
 18 55  1  0  0  0
 19 20  1  0  0  0
 19 21  1  0  0  0
 19 41  1  0  0  0
 20 42  1  0  0  0
 20 43  1  0  0  0
 20 44  1  0  0  0
 21 45  1  0  0  0
 21 46  1  0  0  0
 21 47  1  0  0  0
 22 23  2  0  0  0
 22 25  1  0  0  0
 23 27  1  0  0  0
 23 48  1  0  0  0
 24 26  1  0  0  0
 24 25  2  0  0  0
 24 49  1  0  0  0
 25 50  1  0  0  0
 26 27  2  0  0  0
 26 31  1  0  0  0
 27 28  1  0  0  0
 28 29  2  0  0  0
 28 51  1  0  0  0
 29 30  1  0  0  0
 29 52  1  0  0  0
 30 31  2  0  0  0
 30 53  1  0  0  0
 31 54  1  0  0  0
M  CHG  1  18   1
M  END
> <chembl_id>
CHEMBL3218764

> <chembl_pref_name>
None

> <i_m_ct_stereo_status>
1

> <s_m_source_file>
sdf/inactives_sanitized.sdf

> <i_m_source_file_index>
263

> <i_lp_mmshare_version>
49012

> <i_f3d_flags>
0

> <s_epik_input>
W0NIM11bQ0hdKFtDSDNdKVtDQEBIXShbTkgyXSlDKD1PKVtOSF1jKFtjSF0xKVtjSF1bY0hdYyhjMTIpbmMoczIpU1tDSDJdQyg9TyljKFtjSF1bY0hdMylbY0hdYyhjMzQpW2NIXVtjSF1bY0hdW2NIXTQ=

> <s_epik_cmdline>
J2VwaWtfcHl0aG9uJywgJy1waHQnLCAnMC41JywgJy1waCcsICc3LjUnLCAnLW50JywgJy1tYScsICcyMDAnLCAnLWltYWUnLCAnPGluZmlsZS5tYWU+JywgJy1vbWFlJywgJzxvdXRmaWxlLm1hZT4n

> <r_lp_tautomer_probability>
0.99990000499975

> <r_epik_Ionization_Penalty>
  0.3052

> <r_epik_Ionization_Penalty_Charging>
  0.3052

> <r_epik_Ionization_Penalty_Neutral>
  0.0000

> <r_epik_State_Penalty>
  0.2989

> <r_epik_Charging_Adjusted_Penalty>
0.60409671905429

> <i_epik_Tot_Q>
1

> <i_epik_Tot_abs_Q>
1

> <s_lp_Force_Field>
OPLS3e

> <r_lp_Energy>
47.807727

> <b_lp_Chiralities_Consistent>
1

> <s_lp_Variant>
sdf/inactives_sanitized.sdf:263-1

$$$$
sdf/inactives_sanitized.sdf:263
                    3D
 Schrodinger Suite 2020-1.
 54 57  0  0  1  0            999 V2000
    0.1971   -0.0845    0.1612 C   0  0  0  0  0  0
   -0.5934   -1.2225    0.3527 C   0  0  0  0  0  0
   -1.9856   -1.1539    0.4091 C   0  0  0  0  0  0
   -0.4033    1.1814    0.0389 C   0  0  0  0  0  0
   -1.8014    1.2577    0.0966 C   0  0  0  0  0  0
   -2.5969    0.1000    0.2770 C   0  0  0  0  0  0
   -3.9372    0.3190    0.3095 N   0  0  0  0  0  0
   -4.2366    1.5809    0.1719 C   0  0  0  0  0  0
   -2.8580    2.6553   -0.0210 S   0  0  0  0  0  0
   -5.9143    2.1377    0.1776 S   0  0  0  0  0  0
   -5.7052    3.9480    0.0288 C   0  0  0  0  0  0
   -7.0582    4.6916    0.0232 C   0  0  0  0  0  0
   -8.1187    4.0628    0.0755 O   0  0  0  0  0  0
    1.5863   -0.3113    0.1212 N   0  0  0  0  0  0
    2.5827    0.5159   -0.2656 C   0  0  0  0  0  0
    4.0048   -0.0959   -0.1930 C   0  0  2  0  0  0
    2.4449    1.6726   -0.6719 O   0  0  0  0  0  0
    4.7833    0.7513    0.7295 N   0  0  0  0  0  0
    4.6156   -0.1929   -1.6299 C   0  0  0  0  0  0
    3.7555   -0.9913   -2.6360 C   0  0  0  0  0  0
    6.0394   -0.7817   -1.6027 C   0  0  0  0  0  0
   -7.0148    6.1917   -0.0297 C   0  0  0  0  0  0
   -8.2139    6.9148    0.0326 C   0  0  0  0  0  0
   -5.7801    8.2847   -0.1887 C   0  0  0  0  0  0
   -5.8072    6.8935   -0.1430 C   0  0  0  0  0  0
   -6.9809    9.0285   -0.1234 C   0  0  0  0  0  0
   -8.2208    8.3309   -0.0128 C   0  0  0  0  0  0
   -9.4266    9.0741    0.0494 C   0  0  0  0  0  0
   -9.3984   10.4656    0.0037 C   0  0  0  0  0  0
   -8.1894   11.1454   -0.1022 C   0  0  0  0  0  0
   -6.9871   10.4454   -0.1657 C   0  0  0  0  0  0
   -0.1255   -2.1919    0.4539 H   0  0  0  0  0  0
   -2.5729   -2.0494    0.5505 H   0  0  0  0  0  0
    0.1698    2.0861   -0.0861 H   0  0  0  0  0  0
   -5.0973    4.3038    0.8607 H   0  0  0  0  0  0
   -5.1583    4.1750   -0.8864 H   0  0  0  0  0  0
    1.8631   -1.2452    0.3860 H   0  0  0  0  0  0
    3.9445   -1.1045    0.2227 H   0  0  0  0  0  0
    4.8688    1.6942    0.3765 H   0  0  0  0  0  0
    4.3498    0.8063    1.6402 H   0  0  0  0  0  0
    4.7111    0.8174   -2.0336 H   0  0  0  0  0  0
    3.5582   -1.9997   -2.2710 H   0  0  0  0  0  0
    4.2575   -1.0809   -3.5998 H   0  0  0  0  0  0
    2.7955   -0.5108   -2.8253 H   0  0  0  0  0  0
    6.0430   -1.7860   -1.1781 H   0  0  0  0  0  0
    6.7148   -0.1667   -1.0078 H   0  0  0  0  0  0
    6.4614   -0.8437   -2.6062 H   0  0  0  0  0  0
   -9.1639    6.4047    0.1192 H   0  0  0  0  0  0
   -4.8364    8.8039   -0.2750 H   0  0  0  0  0  0
   -4.8606    6.3764   -0.1989 H   0  0  0  0  0  0
  -10.3705    8.5545    0.1320 H   0  0  0  0  0  0
  -10.3230   11.0221    0.0508 H   0  0  0  0  0  0
   -8.1837   12.2250   -0.1355 H   0  0  0  0  0  0
   -6.0524   10.9813   -0.2483 H   0  0  0  0  0  0
  1  2  2  0  0  0
  1  4  1  0  0  0
  1 14  1  0  0  0
  2  3  1  0  0  0
  2 32  1  0  0  0
  3  6  2  0  0  0
  3 33  1  0  0  0
  4  5  2  0  0  0
  4 34  1  0  0  0
  5  6  1  0  0  0
  5  9  1  0  0  0
  6  7  1  0  0  0
  7  8  2  0  0  0
  8  9  1  0  0  0
  8 10  1  0  0  0
 10 11  1  0  0  0
 11 12  1  0  0  0
 11 35  1  0  0  0
 11 36  1  0  0  0
 12 13  2  0  0  0
 12 22  1  0  0  0
 14 15  1  0  0  0
 14 37  1  0  0  0
 15 16  1  0  0  0
 15 17  2  0  0  0
 16 18  1  0  0  0
 16 19  1  0  0  0
 16 38  1  0  0  0
 18 39  1  0  0  0
 18 40  1  0  0  0
 19 20  1  0  0  0
 19 21  1  0  0  0
 19 41  1  0  0  0
 20 42  1  0  0  0
 20 43  1  0  0  0
 20 44  1  0  0  0
 21 45  1  0  0  0
 21 46  1  0  0  0
 21 47  1  0  0  0
 22 23  2  0  0  0
 22 25  1  0  0  0
 23 27  1  0  0  0
 23 48  1  0  0  0
 24 26  1  0  0  0
 24 25  2  0  0  0
 24 49  1  0  0  0
 25 50  1  0  0  0
 26 27  2  0  0  0
 26 31  1  0  0  0
 27 28  1  0  0  0
 28 29  2  0  0  0
 28 51  1  0  0  0
 29 30  1  0  0  0
 29 52  1  0  0  0
 30 31  2  0  0  0
 30 53  1  0  0  0
 31 54  1  0  0  0
M  END
> <chembl_id>
CHEMBL3218764

> <chembl_pref_name>
None

> <i_m_ct_stereo_status>
1

> <s_m_source_file>
sdf/inactives_sanitized.sdf

> <i_m_source_file_index>
263

> <i_lp_mmshare_version>
49012

> <i_f3d_flags>
0

> <s_epik_input>
W0NIM11bQ0hdKFtDSDNdKVtDQEBIXShbTkgyXSlDKD1PKVtOSF1jKFtjSF0xKVtjSF1bY0hdYyhjMTIpbmMoczIpU1tDSDJdQyg9TyljKFtjSF1bY0hdMylbY0hdYyhjMzQpW2NIXVtjSF1bY0hdW2NIXTQ=

> <s_epik_cmdline>
J2VwaWtfcHl0aG9uJywgJy1waHQnLCAnMC41JywgJy1waCcsICc3LjUnLCAnLW50JywgJy1tYScsICcyMDAnLCAnLWltYWUnLCAnPGluZmlsZS5tYWU+JywgJy1vbWFlJywgJzxvdXRmaWxlLm1hZT4n

> <r_lp_tautomer_probability>
0.99990000499975

> <r_epik_Ionization_Penalty>
  0.5391

> <r_epik_Ionization_Penalty_Charging>
  0.0000

> <r_epik_Ionization_Penalty_Neutral>
  0.5391

> <r_epik_State_Penalty>
  0.5485

> <r_epik_Charging_Adjusted_Penalty>
0.548547175296463

> <i_epik_Tot_Q>
0

> <i_epik_Tot_abs_Q>
0

> <s_lp_Force_Field>
OPLS3e

> <r_lp_Energy>
47.069272

> <b_lp_Chiralities_Consistent>
1

> <s_lp_Variant>
sdf/inactives_sanitized.sdf:263-2

$$$$
sdf/inactives_sanitized.sdf:264
                    3D
 Schrodinger Suite 2020-1.
 74 77  0  0  1  0            999 V2000
   -2.2207   -3.8451   -3.1213 C   0  0  0  0  0  0
   -1.4828   -2.9422   -2.4252 O   0  0  0  0  0  0
   -2.2824   -1.8629   -2.1866 C   0  0  0  0  0  0
   -3.5377   -2.0922   -2.7405 C   0  0  0  0  0  0
   -3.4972   -3.3545   -3.3354 C   0  0  0  0  0  0
   -1.7724   -0.7292   -1.4600 C   0  0  0  0  0  0
   -0.4934   -0.8484   -1.0591 N   0  0  0  0  0  0
   -2.4787    0.2566   -1.2412 O   0  0  0  0  0  0
    0.2598    0.1557   -0.3061 C   0  0  2  0  0  0
    1.7661   -0.0907   -0.5197 C   0  0  0  0  0  0
    2.4719    0.9487   -1.0012 N   0  0  0  0  0  0
    2.2614   -1.1743   -0.2045 O   0  0  0  0  0  0
    3.9279    0.9803   -1.1994 C   0  0  2  0  0  0
    4.6360    1.4321    0.0982 C   0  0  0  0  0  0
    6.1562    1.3047    0.1189 C   0  0  0  0  0  0
    4.2867    1.8498   -2.4288 C   0  0  0  0  0  0
    6.8130    2.5194   -0.4261 N   0  0  3  0  0  0
    5.7909    2.0690   -2.7331 C   0  0  0  0  0  0
    6.5672    3.0474   -1.8079 C   0  0  1  0  0  0
    5.9126    4.4461   -1.7876 C   0  0  0  0  0  0
    4.0368    1.8612    1.0858 O   0  0  0  0  0  0
    8.6096    2.4437    1.4972 O   0  0  0  0  0  0
    8.5783    4.4601   -0.0519 O   0  0  0  0  0  0
    7.8616    3.4185    0.6938 S   0  0  0  0  0  0
    6.7146    4.2331    1.8051 C   0  0  0  0  0  0
    6.1878    5.4046    1.3599 N   0  0  0  0  0  0
    5.2652    6.0206    2.1421 C   0  0  0  0  0  0
    4.8384    5.5014    3.3658 C   0  0  0  0  0  0
    5.3866    4.2942    3.8044 C   0  0  0  0  0  0
    6.3379    3.6432    3.0164 C   0  0  0  0  0  0
   -0.1425    0.1847    1.1968 C   0  0  0  0  0  0
    0.6147    1.1806    2.1174 C   0  0  2  0  0  0
    0.1166    1.0774    3.5808 C   0  0  0  0  0  0
    0.8987    2.0261    4.5121 C   0  0  0  0  0  0
    0.7789    3.4915    4.0345 C   0  0  2  0  0  0
    1.3074    3.6003    2.5859 C   0  0  0  0  0  0
    0.5342    2.6555    1.6400 C   0  0  0  0  0  0
    1.5057    4.4597    4.9834 C   0  0  0  0  0  0
   -1.7224   -4.7653   -3.3892 H   0  0  0  0  0  0
   -4.3843   -1.4213   -2.7154 H   0  0  0  0  0  0
   -4.3018   -3.8499   -3.8584 H   0  0  0  0  0  0
    0.0131   -1.6933   -1.2816 H   0  0  0  0  0  0
    0.0050    1.1277   -0.7344 H   0  0  0  0  0  0
    1.9786    1.8043   -1.2117 H   0  0  0  0  0  0
    4.2834   -0.0323   -1.4042 H   0  0  0  0  0  0
    6.4730    1.1615    1.1521 H   0  0  0  0  0  0
    6.5072    0.4274   -0.4245 H   0  0  0  0  0  0
    3.8426    1.3757   -3.3057 H   0  0  0  0  0  0
    3.7860    2.8164   -2.3569 H   0  0  0  0  0  0
    5.8677    2.4508   -3.7523 H   0  0  0  0  0  0
    6.3008    1.1049   -2.7608 H   0  0  0  0  0  0
    7.5544    3.1488   -2.2611 H   0  0  0  0  0  0
    5.6353    4.7665   -2.7923 H   0  0  0  0  0  0
    6.5848    5.2091   -1.3993 H   0  0  0  0  0  0
    5.0109    4.4601   -1.1745 H   0  0  0  0  0  0
    4.8616    6.9497    1.7681 H   0  0  0  0  0  0
    4.0987    6.0195    3.9581 H   0  0  0  0  0  0
    5.0726    3.8626    4.7433 H   0  0  0  0  0  0
    6.7566    2.7000    3.3350 H   0  0  0  0  0  0
   -1.2109    0.3949    1.2706 H   0  0  0  0  0  0
   -0.0221   -0.8222    1.6019 H   0  0  0  0  0  0
    1.6718    0.9102    2.1311 H   0  0  0  0  0  0
   -0.9515    1.2961    3.6276 H   0  0  0  0  0  0
    0.2077    0.0490    3.9329 H   0  0  0  0  0  0
    0.5313    1.9370    5.5354 H   0  0  0  0  0  0
    1.9486    1.7322    4.5651 H   0  0  0  0  0  0
   -0.2813    3.7513    4.0203 H   0  0  0  0  0  0
    1.2304    4.6309    2.2368 H   0  0  0  0  0  0
    2.3752    3.3784    2.5615 H   0  0  0  0  0  0
    0.9206    2.7543    0.6260 H   0  0  0  0  0  0
   -0.5105    2.9636    1.5731 H   0  0  0  0  0  0
    2.5684    4.2267    5.0536 H   0  0  0  0  0  0
    1.0898    4.4101    5.9902 H   0  0  0  0  0  0
    1.4130    5.4915    4.6427 H   0  0  0  0  0  0
  1  5  2  0  0  0
  1  2  1  0  0  0
  1 39  1  0  0  0
  2  3  1  0  0  0
  3  6  1  0  0  0
  3  4  2  0  0  0
  4  5  1  0  0  0
  4 40  1  0  0  0
  5 41  1  0  0  0
  6  7  1  0  0  0
  6  8  2  0  0  0
  7  9  1  0  0  0
  7 42  1  0  0  0
  9 10  1  0  0  0
  9 31  1  0  0  0
  9 43  1  0  0  0
 10 11  1  0  0  0
 10 12  2  0  0  0
 11 13  1  0  0  0
 11 44  1  0  0  0
 13 14  1  0  0  0
 13 16  1  0  0  0
 13 45  1  0  0  0
 14 21  2  0  0  0
 14 15  1  0  0  0
 15 17  1  0  0  0
 15 46  1  0  0  0
 15 47  1  0  0  0
 16 18  1  0  0  0
 16 48  1  0  0  0
 16 49  1  0  0  0
 17 19  1  0  0  0
 17 24  1  0  0  0
 18 19  1  0  0  0
 18 50  1  0  0  0
 18 51  1  0  0  0
 19 20  1  0  0  0
 19 52  1  0  0  0
 20 53  1  0  0  0
 20 54  1  0  0  0
 20 55  1  0  0  0
 22 24  2  0  0  0
 23 24  2  0  0  0
 24 25  1  0  0  0
 25 26  2  0  0  0
 25 30  1  0  0  0
 26 27  1  0  0  0
 27 28  2  0  0  0
 27 56  1  0  0  0
 28 29  1  0  0  0
 28 57  1  0  0  0
 29 30  2  0  0  0
 29 58  1  0  0  0
 30 59  1  0  0  0
 31 32  1  0  0  0
 31 60  1  0  0  0
 31 61  1  0  0  0
 32 33  1  0  0  0
 32 37  1  0  0  0
 32 62  1  0  0  0
 33 34  1  0  0  0
 33 63  1  0  0  0
 33 64  1  0  0  0
 34 35  1  0  0  0
 34 65  1  0  0  0
 34 66  1  0  0  0
 35 36  1  0  0  0
 35 38  1  0  0  0
 35 67  1  0  0  0
 36 37  1  0  0  0
 36 68  1  0  0  0
 36 69  1  0  0  0
 37 70  1  0  0  0
 37 71  1  0  0  0
 38 72  1  0  0  0
 38 73  1  0  0  0
 38 74  1  0  0  0
M  END
> <chembl_id>
CHEMBL1807698

> <chembl_pref_name>
None

> <i_m_ct_stereo_status>
1

> <s_m_source_file>
sdf/inactives_sanitized.sdf

> <i_m_source_file_index>
264

> <i_lp_mmshare_version>
49012

> <i_f3d_flags>
0

> <s_epik_input>
W2NIXTFbY0hdW2NIXW9jMUMoPU8pW05IXVtDQEBIXShbQ0gyXVtDQEBIXTJbQ0gyXVtDSDJdW0NAQEhdKFtDSDNdKVtDSDJdW0NIMl0yKUMoPU8pW05IXVtDQEBIXTNDKD1PKVtDSDJdTihbQ0BIXShbQ0gzXSlbQ0gyXVtDSDJdMylTKD1PKSg9TyljNG5bY0hdW2NIXVtjSF1bY0hdNA==

> <s_epik_cmdline>
J2VwaWtfcHl0aG9uJywgJy1waHQnLCAnMC41JywgJy1waCcsICc3LjUnLCAnLW50JywgJy1tYScsICcyMDAnLCAnLWltYWUnLCAnPGluZmlsZS5tYWU+JywgJy1vbWFlJywgJzxvdXRmaWxlLm1hZT4n

> <r_lp_tautomer_probability>
1

> <r_epik_Ionization_Penalty>
  0.0000

> <r_epik_Ionization_Penalty_Charging>
  0.0000

> <r_epik_Ionization_Penalty_Neutral>
  0.0000

> <r_epik_State_Penalty>
 -0.0000

> <r_epik_Charging_Adjusted_Penalty>
0

> <i_epik_Tot_Q>
0

> <i_epik_Tot_abs_Q>
0

> <s_lp_Force_Field>
OPLS3e

> <r_lp_Energy>
37.456907

> <b_lp_Chiralities_Consistent>
1

> <s_lp_Variant>
sdf/inactives_sanitized.sdf:264-1

$$$$
sdf/inactives_sanitized.sdf:265
                    3D
 Schrodinger Suite 2020-1.
 60 62  0  0  1  0            999 V2000
   -0.7904   -0.9855    0.1017 C   0  0  0  0  0  0
   -0.0213    0.0836    0.4744 N   0  0  0  0  0  0
   -0.7919    1.0955    0.8821 N   0  0  0  0  0  0
   -2.0971    0.6556    0.7708 N   0  0  0  0  0  0
   -2.1116   -0.5745    0.2665 C   0  0  0  0  0  0
   -3.4350   -1.3293   -0.0009 C   0  0  1  0  0  0
    1.4305    0.2206    0.3941 C   0  0  1  0  0  0
    1.8400    1.2873   -0.6494 C   0  0  0  0  0  0
    2.0035    0.4906    1.7246 C   0  0  0  0  0  0
    2.4542    0.7020    2.7691 N   0  0  0  0  0  0
   -3.9723   -1.7332    1.3986 C   0  0  0  0  0  0
   -4.4714   -0.4634   -0.6087 N   0  0  0  0  0  0
   -4.3663    0.4336   -1.6151 C   0  0  0  0  0  0
   -3.3108    0.6952   -2.1965 O   0  0  0  0  0  0
    1.3587    0.9808   -2.0823 C   0  0  0  0  0  0
    1.7941    2.0444   -3.1044 C   0  0  0  0  0  0
    1.3140    1.7319   -4.5281 C   0  0  0  0  0  0
   -5.6046    1.0902   -1.9803 C   0  0  0  0  0  0
   -6.8508    0.9469   -1.3292 C   0  0  0  0  0  0
   -7.8635    1.7091   -1.8951 C   0  0  0  0  0  0
   -7.3075    2.6357   -3.2462 S   0  0  0  0  0  0
   -5.7106    1.9928   -3.0419 C   0  0  0  0  0  0
   -3.1995   -2.6375   -0.8626 C   0  0  2  0  0  0
   -2.6191   -2.3927   -2.2906 C   0  0  0  0  0  0
   -2.2646   -3.7170   -2.9949 C   0  0  0  0  0  0
   -3.5206   -4.6026   -3.1490 C   0  0  2  0  0  0
   -4.1369   -4.8603   -1.7562 C   0  0  0  0  0  0
   -4.4639   -3.5365   -1.0307 C   0  0  0  0  0  0
   -3.2105   -5.9144   -3.8907 C   0  0  0  0  0  0
   -0.3437   -1.8969   -0.2664 H   0  0  0  0  0  0
    1.8326   -0.7464    0.0886 H   0  0  0  0  0  0
    2.9280    1.3704   -0.6548 H   0  0  0  0  0  0
    1.4702    2.2669   -0.3405 H   0  0  0  0  0  0
   -3.3251   -2.4674    1.8805 H   0  0  0  0  0  0
   -4.9777   -2.1520    1.3623 H   0  0  0  0  0  0
   -4.0325   -0.8754    2.0708 H   0  0  0  0  0  0
   -5.3955   -0.5968   -0.2262 H   0  0  0  0  0  0
    1.7376    0.0040   -2.3869 H   0  0  0  0  0  0
    0.2704    0.9029   -2.0960 H   0  0  0  0  0  0
    1.4071    3.0191   -2.8042 H   0  0  0  0  0  0
    2.8813    2.1332   -3.1042 H   0  0  0  0  0  0
    1.6288    2.5093   -5.2249 H   0  0  0  0  0  0
    0.2261    1.6680   -4.5736 H   0  0  0  0  0  0
    1.7202    0.7843   -4.8834 H   0  0  0  0  0  0
   -7.0180    0.3094   -0.4730 H   0  0  0  0  0  0
   -8.8953    1.7695   -1.5815 H   0  0  0  0  0  0
   -4.9249    2.3072   -3.7143 H   0  0  0  0  0  0
   -2.4633   -3.2446   -0.3314 H   0  0  0  0  0  0
   -3.3163   -1.8194   -2.9004 H   0  0  0  0  0  0
   -1.7248   -1.7736   -2.2472 H   0  0  0  0  0  0
   -1.8253   -3.5202   -3.9739 H   0  0  0  0  0  0
   -1.4897   -4.2508   -2.4419 H   0  0  0  0  0  0
   -4.2507   -4.0384   -3.7330 H   0  0  0  0  0  0
   -5.0345   -5.4727   -1.8537 H   0  0  0  0  0  0
   -3.4533   -5.4600   -1.1526 H   0  0  0  0  0  0
   -4.8886   -3.7918   -0.0616 H   0  0  0  0  0  0
   -5.2549   -2.9905   -1.5472 H   0  0  0  0  0  0
   -2.4853   -6.5201   -3.3457 H   0  0  0  0  0  0
   -2.8010   -5.7196   -4.8826 H   0  0  0  0  0  0
   -4.1113   -6.5147   -4.0231 H   0  0  0  0  0  0
  1  5  2  0  0  0
  1  2  1  0  0  0
  1 30  1  0  0  0
  2  7  1  0  0  0
  2  3  1  0  0  0
  3  4  2  0  0  0
  4  5  1  0  0  0
  5  6  1  0  0  0
  6 11  1  0  0  0
  6 23  1  0  0  0
  6 12  1  0  0  0
  7  8  1  0  0  0
  7  9  1  0  0  0
  7 31  1  0  0  0
  8 15  1  0  0  0
  8 32  1  0  0  0
  8 33  1  0  0  0
  9 10  3  0  0  0
 11 34  1  0  0  0
 11 35  1  0  0  0
 11 36  1  0  0  0
 12 13  1  0  0  0
 12 37  1  0  0  0
 13 18  1  0  0  0
 13 14  2  0  0  0
 15 16  1  0  0  0
 15 38  1  0  0  0
 15 39  1  0  0  0
 16 17  1  0  0  0
 16 40  1  0  0  0
 16 41  1  0  0  0
 17 42  1  0  0  0
 17 43  1  0  0  0
 17 44  1  0  0  0
 18 19  1  0  0  0
 18 22  2  0  0  0
 19 20  2  0  0  0
 19 45  1  0  0  0
 20 21  1  0  0  0
 20 46  1  0  0  0
 21 22  1  0  0  0
 22 47  1  0  0  0
 23 24  1  0  0  0
 23 28  1  0  0  0
 23 48  1  0  0  0
 24 25  1  0  0  0
 24 49  1  0  0  0
 24 50  1  0  0  0
 25 26  1  0  0  0
 25 51  1  0  0  0
 25 52  1  0  0  0
 26 27  1  0  0  0
 26 29  1  0  0  0
 26 53  1  0  0  0
 27 28  1  0  0  0
 27 54  1  0  0  0
 27 55  1  0  0  0
 28 56  1  0  0  0
 28 57  1  0  0  0
 29 58  1  0  0  0
 29 59  1  0  0  0
 29 60  1  0  0  0
M  END
> <chembl_id>
CHEMBL3085035

> <chembl_pref_name>
None

> <i_m_ct_stereo_status>
1

> <s_m_source_file>
sdf/inactives_sanitized.sdf

> <i_m_source_file_index>
265

> <i_lp_mmshare_version>
49012

> <i_f3d_flags>
0

> <s_epik_input>
W0NIM11bQ0gyXVtDSDJdW0NIMl1bQ0BASF0oQyNOKW4xW2NIXWMobm4xKVtDQF0oW0NIM10pKFtDQEBIXTJbQ0gyXVtDSDJdW0NAQEhdKFtDSDNdKVtDSDJdW0NIMl0yKVtOSF1DKD1PKWMzW2NIXVtjSF1zW2NIXTM=

> <s_epik_cmdline>
J2VwaWtfcHl0aG9uJywgJy1waHQnLCAnMC41JywgJy1waCcsICc3LjUnLCAnLW50JywgJy1tYScsICcyMDAnLCAnLWltYWUnLCAnPGluZmlsZS5tYWU+JywgJy1vbWFlJywgJzxvdXRmaWxlLm1hZT4n

> <r_lp_tautomer_probability>
1

> <r_epik_Ionization_Penalty>
  0.0000

> <r_epik_Ionization_Penalty_Charging>
  0.0000

> <r_epik_Ionization_Penalty_Neutral>
  0.0000

> <r_epik_State_Penalty>
 -0.0000

> <r_epik_Charging_Adjusted_Penalty>
0

> <i_epik_Tot_Q>
0

> <i_epik_Tot_abs_Q>
0

> <s_lp_Force_Field>
OPLS3e

> <r_lp_Energy>
22.536245

> <b_lp_Chiralities_Consistent>
1

> <s_lp_Variant>
sdf/inactives_sanitized.sdf:265-1

$$$$
sdf/inactives_sanitized.sdf:266
                    3D
 Schrodinger Suite 2020-1.
 57 58  0  0  1  0            999 V2000
    2.9009    1.3637   -1.7159 C   0  0  0  0  0  0
    3.4073    2.0407   -0.6979 N   0  0  0  0  0  0
    1.7849    0.4186   -1.5729 C   0  0  0  0  0  0
    3.4767    1.5992   -2.8812 N   0  0  0  0  0  0
   -1.0833    0.9217   -0.4912 C   0  0  0  0  0  0
    4.3552    2.7390   -1.2577 C   0  0  0  0  0  0
    4.4681    2.5324   -2.5893 O   0  0  0  0  0  0
   -0.2035   -0.1186   -0.1963 N   0  0  0  0  0  0
    1.2615    0.0851   -0.1636 C   0  0  1  0  0  0
    1.2890   -0.1193   -2.5684 O   0  0  0  0  0  0
   -2.3499    0.4678   -0.3623 O   0  0  0  0  0  0
   -0.7783    2.0769   -0.7985 O   0  0  0  0  0  0
   -3.4831    1.3036   -0.6091 C   0  0  2  0  0  0
   -4.6987    0.7361    0.1582 C   0  0  0  0  0  0
   -4.5038    0.5650    1.6865 C   0  0  0  0  0  0
    5.2989    3.7161   -0.6001 C   0  0  0  0  0  0
    1.9461   -1.2019    0.3725 C   0  0  0  0  0  0
   -3.7593    1.4002   -2.1230 C   0  0  0  0  0  0
   -5.7669   -0.0425    2.3412 C   0  0  0  0  0  0
   -4.1629    1.8918    2.4092 C   0  0  0  0  0  0
    3.4624   -1.0861    0.6436 C   0  0  0  0  0  0
    4.0531   -2.3497    1.2928 C   0  0  0  0  0  0
    5.5599   -2.2338    1.5601 C   0  0  0  0  0  0
   -3.9183    1.6675    3.9156 C   0  0  0  0  0  0
   -5.5533   -0.3087    3.8452 C   0  0  0  0  0  0
   -5.1196    0.9715    4.5909 C   0  0  0  0  0  0
   -0.5708   -0.8919    0.3385 H   0  0  0  0  0  0
    1.4578    0.8769    0.5623 H   0  0  0  0  0  0
   -3.2870    2.3096   -0.2347 H   0  0  0  0  0  0
   -5.5593    1.3832   -0.0191 H   0  0  0  0  0  0
   -4.9604   -0.2330   -0.2703 H   0  0  0  0  0  0
   -3.6802   -0.1308    1.8590 H   0  0  0  0  0  0
    5.1379    3.7817    0.4763 H   0  0  0  0  0  0
    5.1776    4.7207   -1.0052 H   0  0  0  0  0  0
    6.3396    3.4298   -0.7526 H   0  0  0  0  0  0
    1.4569   -1.4832    1.3072 H   0  0  0  0  0  0
    1.7582   -2.0357   -0.3075 H   0  0  0  0  0  0
   -4.6341    2.0195   -2.3231 H   0  0  0  0  0  0
   -3.9404    0.4170   -2.5590 H   0  0  0  0  0  0
   -2.9184    1.8480   -2.6536 H   0  0  0  0  0  0
   -6.6255    0.6127    2.1834 H   0  0  0  0  0  0
   -6.0329   -0.9735    1.8386 H   0  0  0  0  0  0
   -3.2792    2.3508    1.9661 H   0  0  0  0  0  0
   -4.9617    2.6189    2.2531 H   0  0  0  0  0  0
    3.9922   -0.8941   -0.2900 H   0  0  0  0  0  0
    3.6504   -0.2279    1.2905 H   0  0  0  0  0  0
    3.5389   -2.5552    2.2327 H   0  0  0  0  0  0
    3.8700   -3.2115    0.6493 H   0  0  0  0  0  0
    5.9457   -3.1456    2.0164 H   0  0  0  0  0  0
    5.7797   -1.4072    2.2365 H   0  0  0  0  0  0
    6.1142   -2.0669    0.6360 H   0  0  0  0  0  0
   -3.0223    1.0597    4.0517 H   0  0  0  0  0  0
   -3.7168    2.6205    4.4061 H   0  0  0  0  0  0
   -6.4683   -0.7044    4.2877 H   0  0  0  0  0  0
   -4.7933   -1.0809    3.9743 H   0  0  0  0  0  0
   -4.8779    0.7346    5.6276 H   0  0  0  0  0  0
   -5.9605    1.6658    4.6277 H   0  0  0  0  0  0
  1  2  1  0  0  0
  1  3  1  0  0  0
  1  4  2  0  0  0
  2  6  2  0  0  0
  3  9  1  0  0  0
  3 10  2  0  0  0
  4  7  1  0  0  0
  5  8  1  0  0  0
  5 11  1  0  0  0
  5 12  2  0  0  0
  6 16  1  0  0  0
  6  7  1  0  0  0
  8  9  1  0  0  0
  8 27  1  0  0  0
  9 17  1  0  0  0
  9 28  1  0  0  0
 11 13  1  0  0  0
 13 14  1  0  0  0
 13 18  1  0  0  0
 13 29  1  0  0  0
 14 15  1  0  0  0
 14 30  1  0  0  0
 14 31  1  0  0  0
 15 19  1  0  0  0
 15 20  1  0  0  0
 15 32  1  0  0  0
 16 33  1  0  0  0
 16 34  1  0  0  0
 16 35  1  0  0  0
 17 21  1  0  0  0
 17 36  1  0  0  0
 17 37  1  0  0  0
 18 38  1  0  0  0
 18 39  1  0  0  0
 18 40  1  0  0  0
 19 25  1  0  0  0
 19 41  1  0  0  0
 19 42  1  0  0  0
 20 24  1  0  0  0
 20 43  1  0  0  0
 20 44  1  0  0  0
 21 22  1  0  0  0
 21 45  1  0  0  0
 21 46  1  0  0  0
 22 23  1  0  0  0
 22 47  1  0  0  0
 22 48  1  0  0  0
 23 49  1  0  0  0
 23 50  1  0  0  0
 23 51  1  0  0  0
 24 26  1  0  0  0
 24 52  1  0  0  0
 24 53  1  0  0  0
 25 26  1  0  0  0
 25 54  1  0  0  0
 25 55  1  0  0  0
 26 56  1  0  0  0
 26 57  1  0  0  0
M  END
> <chembl_id>
CHEMBL360237

> <chembl_pref_name>
None

> <i_m_ct_stereo_status>
1

> <s_m_source_file>
sdf/inactives_sanitized.sdf

> <i_m_source_file_index>
266

> <i_lp_mmshare_version>
49012

> <i_f3d_flags>
0

> <s_epik_input>
bjFvYyhbQ0gzXSluYzFDKD1PKVtDQEhdKFtDSDJdW0NIMl1bQ0gyXVtDSDNdKVtOSF1DKD1PKU9bQ0BASF0oW0NIM10pW0NIMl1bQ0hdMltDSDJdW0NIMl1bQ0gyXVtDSDJdW0NIMl0y

> <s_epik_cmdline>
J2VwaWtfcHl0aG9uJywgJy1waHQnLCAnMC41JywgJy1waCcsICc3LjUnLCAnLW50JywgJy1tYScsICcyMDAnLCAnLWltYWUnLCAnPGluZmlsZS5tYWU+JywgJy1vbWFlJywgJzxvdXRmaWxlLm1hZT4n

> <r_lp_tautomer_probability>
1

> <r_epik_Ionization_Penalty>
  0.0000

> <r_epik_Ionization_Penalty_Charging>
  0.0000

> <r_epik_Ionization_Penalty_Neutral>
  0.0000

> <r_epik_State_Penalty>
 -0.0000

> <r_epik_Charging_Adjusted_Penalty>
0

> <i_epik_Tot_Q>
0

> <i_epik_Tot_abs_Q>
0

> <s_epik_Chemistry_Notes>
This compound has an ester and may undergo hydrolysis at high or low pH.

> <s_lp_Force_Field>
OPLS3e

> <r_lp_Energy>
24.41276

> <b_lp_Chiralities_Consistent>
1

> <s_lp_Variant>
sdf/inactives_sanitized.sdf:266-1

$$$$
sdf/inactives_sanitized.sdf:267
                    3D
 Schrodinger Suite 2020-1.
 50 52  0  0  1  0            999 V2000
    0.0341    4.5516    0.0306 C   0  0  0  0  0  0
   -0.4267    3.6913    1.2257 N   0  3  0  0  0  0
   -0.0337    4.3601    2.5579 C   0  0  0  0  0  0
    0.0803    2.2316    1.1693 C   0  0  0  0  0  0
   -0.5109    1.4724   -0.0340 C   0  0  0  0  0  0
   -0.1523   -0.0210   -0.0282 C   0  0  0  0  0  0
    1.2656   -0.1559   -0.0729 O   0  0  0  0  0  0
    1.8427   -1.4132   -0.0479 C   0  0  0  0  0  0
    1.1012   -2.6046   -0.0640 C   0  0  0  0  0  0
    1.7404   -3.8413   -0.0489 C   0  0  0  0  0  0
    3.1379   -3.9347   -0.0161 C   0  0  0  0  0  0
    3.8716   -2.7409    0.0068 C   0  0  0  0  0  0
    3.2454   -1.4869   -0.0103 C   0  0  0  0  0  0
    4.0859   -0.2049    0.0161 C   0  0  0  0  0  0
    5.3977   -0.4460    0.0645 F   0  0  0  0  0  0
    3.8412    0.5153   -1.0794 F   0  0  0  0  0  0
    3.7631    0.5241    1.0852 F   0  0  0  0  0  0
    3.8309   -5.2610   -0.0090 C   0  0  0  0  0  0
    5.0781   -5.4367   -0.6320 C   0  0  0  0  0  0
    5.6278   -6.7225   -0.5678 C   0  0  0  0  0  0
    4.9597   -7.7900    0.0850 C   0  0  0  0  0  0
    5.6921   -8.9486    0.0150 N   0  0  0  0  0  0
    6.7652   -8.6093   -0.6515 C   0  0  0  0  0  0
    6.7970   -7.2871   -1.0368 N   0  0  0  0  0  0
    7.8553   -6.6254   -1.7799 C   0  0  0  0  0  0
    3.7135   -7.5139    0.6722 C   0  0  0  0  0  0
    3.1682   -6.2729    0.6201 N   0  0  0  0  0  0
    2.9187   -8.5141    1.3692 C   0  0  0  0  0  0
    2.2870   -9.3098    1.9233 N   0  0  0  0  0  0
    1.1249    4.5327    0.0067 H   0  0  0  0  0  0
   -0.3451    5.5619    0.1900 H   0  0  0  0  0  0
   -0.3979    4.1278   -0.8753 H   0  0  0  0  0  0
    1.0559    4.4052    2.5999 H   0  0  0  0  0  0
   -0.4424    3.7489    3.3636 H   0  0  0  0  0  0
   -0.4786    5.3561    2.5665 H   0  0  0  0  0  0
    1.1707    2.2805    1.1517 H   0  0  0  0  0  0
   -0.2466    1.7774    2.1061 H   0  0  0  0  0  0
   -1.5960    1.5821   -0.0403 H   0  0  0  0  0  0
   -0.1518    1.9046   -0.9679 H   0  0  0  0  0  0
   -0.5561   -0.4966    0.8676 H   0  0  0  0  0  0
   -0.6037   -0.5049   -0.8961 H   0  0  0  0  0  0
    0.0226   -2.5940   -0.0931 H   0  0  0  0  0  0
    1.1337   -4.7352   -0.0704 H   0  0  0  0  0  0
    4.9496   -2.7910    0.0458 H   0  0  0  0  0  0
    5.5859   -4.6304   -1.1403 H   0  0  0  0  0  0
    7.5861   -9.2640   -0.9070 H   0  0  0  0  0  0
    8.6471   -7.3343   -2.0258 H   0  0  0  0  0  0
    8.2689   -5.8175   -1.1753 H   0  0  0  0  0  0
    7.4442   -6.2105   -2.7008 H   0  0  0  0  0  0
   -1.4366    3.6575    1.2024 H   0  0  0  0  0  0
  1  2  1  0  0  0
  1 30  1  0  0  0
  1 31  1  0  0  0
  1 32  1  0  0  0
  2  3  1  0  0  0
  2  4  1  0  0  0
  2 50  1  0  0  0
  3 33  1  0  0  0
  3 34  1  0  0  0
  3 35  1  0  0  0
  4  5  1  0  0  0
  4 36  1  0  0  0
  4 37  1  0  0  0
  5  6  1  0  0  0
  5 38  1  0  0  0
  5 39  1  0  0  0
  6  7  1  0  0  0
  6 40  1  0  0  0
  6 41  1  0  0  0
  7  8  1  0  0  0
  8  9  2  0  0  0
  8 13  1  0  0  0
  9 10  1  0  0  0
  9 42  1  0  0  0
 10 11  2  0  0  0
 10 43  1  0  0  0
 11 12  1  0  0  0
 11 18  1  0  0  0
 12 13  2  0  0  0
 12 44  1  0  0  0
 13 14  1  0  0  0
 14 15  1  0  0  0
 14 16  1  0  0  0
 14 17  1  0  0  0
 18 19  2  0  0  0
 18 27  1  0  0  0
 19 20  1  0  0  0
 19 45  1  0  0  0
 20 21  2  0  0  0
 20 24  1  0  0  0
 21 22  1  0  0  0
 21 26  1  0  0  0
 22 23  2  0  0  0
 23 24  1  0  0  0
 23 46  1  0  0  0
 24 25  1  0  0  0
 25 47  1  0  0  0
 25 48  1  0  0  0
 25 49  1  0  0  0
 26 27  2  0  0  0
 26 28  1  0  0  0
 28 29  3  0  0  0
M  CHG  1   2   1
M  END
> <chembl_id>
CHEMBL1209086

> <chembl_pref_name>
None

> <s_m_source_file>
sdf/inactives_sanitized.sdf

> <i_m_source_file_index>
267

> <i_lp_mmshare_version>
49012

> <i_m_ct_stereo_status>
1

> <i_f3d_flags>
0

> <s_epik_input>
W0NIM11OKFtDSDNdKVtDSDJdW0NIMl1bQ0gyXU9jMVtjSF1bY0hdYyhbY0hdYzFDKEYpKEYpRiktYyhbY0hdMiluYyhDI04pYyhjMjMpbltjSF1uM1tDSDNd

> <s_epik_cmdline>
J2VwaWtfcHl0aG9uJywgJy1waHQnLCAnMC41JywgJy1waCcsICc3LjUnLCAnLW50JywgJy1tYScsICcyMDAnLCAnLWltYWUnLCAnPGluZmlsZS5tYWU+JywgJy1vbWFlJywgJzxvdXRmaWxlLm1hZT4n

> <r_lp_tautomer_probability>
1

> <r_epik_Ionization_Penalty>
  0.0137

> <r_epik_Ionization_Penalty_Charging>
  0.0137

> <r_epik_Ionization_Penalty_Neutral>
  0.0000

> <r_epik_State_Penalty>
  0.0107

> <r_epik_Charging_Adjusted_Penalty>
0.0244546291731287

> <i_epik_Tot_Q>
1

> <i_epik_Tot_abs_Q>
1

> <s_lp_Force_Field>
OPLS3e

> <r_lp_Energy>
39.911743

> <b_lp_Chiralities_Consistent>
1

> <s_lp_Variant>
sdf/inactives_sanitized.sdf:267-1

$$$$
sdf/inactives_sanitized.sdf:268
                    3D
 Schrodinger Suite 2020-1.
 69 71  0  0  1  0            999 V2000
    1.9550    0.3246   -2.5208 C   0  0  0  0  0  0
    2.0861   -0.4650   -1.1462 C   0  0  0  0  0  0
    2.3777   -0.4009   -3.5753 N   0  0  0  0  0  0
   -0.7194    1.3272    0.0719 C   0  0  0  0  0  0
   -6.3332    4.1416    1.4383 C   0  0  0  0  0  0
    0.0660    0.1925   -0.0897 N   0  0  0  0  0  0
    1.5267    0.2415    0.0885 C   0  0  1  0  0  0
   -4.4553    1.3430   -0.1944 C   0  0  0  0  0  0
   -6.2176    4.6430    2.6955 N   0  0  0  0  0  0
   -7.1747    4.6109    0.4702 N   0  0  0  0  0  0
    2.3464    0.0325   -4.9776 C   0  0  1  0  0  0
    2.6510   -1.5632   -1.1094 O   0  0  0  0  0  0
    1.5095    1.4725   -2.5671 O   0  0  0  0  0  0
   -0.3226    2.4673    0.3248 O   0  0  0  0  0  0
   -2.0093    0.9824   -0.0931 O   0  0  0  0  0  0
   -5.5031    3.0686    1.1732 O   0  0  0  0  0  0
    3.1487    1.3051   -5.2820 C   0  0  0  0  0  0
   -3.0447    1.9574   -0.0064 C   0  0  0  0  0  0
   -5.5334    2.4534   -0.1163 C   0  0  0  0  0  0
   -7.9065    6.2582    2.0789 C   0  0  0  0  0  0
   -4.6227    0.4252   -1.4253 C   0  0  0  0  0  0
   -4.7713    0.1184    0.6919 C   0  0  0  0  0  0
   -7.0132    5.7025    2.9983 C   0  0  0  0  0  0
   -7.9527    5.6714    0.8120 C   0  0  0  0  0  0
    1.9793   -0.4382    1.4125 C   0  0  0  0  0  0
   -5.3915   -0.5647   -0.5364 C   0  0  0  0  0  0
    2.7842   -1.1180   -5.8992 C   0  0  0  0  0  0
    4.3969    1.5279   -4.6865 C   0  0  0  0  0  0
    2.6146    2.2643   -6.1488 C   0  0  0  0  0  0
    1.4591    0.2234    2.7078 C   0  0  0  0  0  0
    1.9952    1.6462    2.9561 C   0  0  0  0  0  0
    1.4784    2.2564    4.2656 C   0  0  0  0  0  0
    5.1047    2.6951   -4.9607 C   0  0  0  0  0  0
    3.3227    3.4315   -6.4230 C   0  0  0  0  0  0
    4.5646    3.6414   -5.8281 C   0  0  0  0  0  0
    2.6916   -1.3460   -3.4080 H   0  0  0  0  0  0
   -0.3800   -0.7074   -0.1907 H   0  0  0  0  0  0
    1.9124    1.2635    0.0866 H   0  0  0  0  0  0
    1.2959    0.2310   -5.2039 H   0  0  0  0  0  0
   -2.8772    2.7240   -0.7651 H   0  0  0  0  0  0
   -2.9884    2.4529    0.9646 H   0  0  0  0  0  0
   -6.5283    2.0413   -0.2967 H   0  0  0  0  0  0
   -5.3489    3.1942   -0.8971 H   0  0  0  0  0  0
   -8.5314    7.1009    2.3355 H   0  0  0  0  0  0
   -5.1882    0.8458   -2.2580 H   0  0  0  0  0  0
   -3.6877    0.0133   -1.8093 H   0  0  0  0  0  0
   -3.8886   -0.4023    1.0673 H   0  0  0  0  0  0
   -5.4530    0.2981    1.5245 H   0  0  0  0  0  0
   -6.9247    6.1048    3.9967 H   0  0  0  0  0  0
   -8.6194    6.0490    0.0505 H   0  0  0  0  0  0
    1.6392   -1.4759    1.4203 H   0  0  0  0  0  0
    3.0694   -0.4819    1.4582 H   0  0  0  0  0  0
   -5.1273   -1.6143   -0.6692 H   0  0  0  0  0  0
   -6.4753   -0.4494   -0.5952 H   0  0  0  0  0  0
    2.6643   -0.8497   -6.9496 H   0  0  0  0  0  0
    2.1894   -2.0156   -5.7247 H   0  0  0  0  0  0
    3.8314   -1.3803   -5.7413 H   0  0  0  0  0  0
    4.8204    0.7978   -4.0124 H   0  0  0  0  0  0
    1.6506    2.1080   -6.6108 H   0  0  0  0  0  0
    0.3682    0.2323    2.7060 H   0  0  0  0  0  0
    1.7432   -0.4070    3.5517 H   0  0  0  0  0  0
    3.0857    1.6278    2.9755 H   0  0  0  0  0  0
    1.7168    2.3040    2.1333 H   0  0  0  0  0  0
    1.8831    3.2580    4.4144 H   0  0  0  0  0  0
    1.7663    1.6518    5.1262 H   0  0  0  0  0  0
    0.3909    2.3370    4.2610 H   0  0  0  0  0  0
    6.0675    2.8665   -4.5022 H   0  0  0  0  0  0
    2.9100    4.1716   -7.0925 H   0  0  0  0  0  0
    5.1134    4.5471   -6.0405 H   0  0  0  0  0  0
  1  2  1  0  0  0
  1  3  1  0  0  0
  1 13  2  0  0  0
  2  7  1  0  0  0
  2 12  2  0  0  0
  3 11  1  0  0  0
  3 36  1  0  0  0
  4  6  1  0  0  0
  4 14  2  0  0  0
  4 15  1  0  0  0
  5 16  1  0  0  0
  5  9  2  0  0  0
  5 10  1  0  0  0
  6  7  1  0  0  0
  6 37  1  0  0  0
  7 25  1  0  0  0
  7 38  1  0  0  0
  8 18  1  0  0  0
  8 19  1  0  0  0
  8 21  1  0  0  0
  8 22  1  0  0  0
  9 23  1  0  0  0
 10 24  2  0  0  0
 11 17  1  0  0  0
 11 27  1  0  0  0
 11 39  1  0  0  0
 15 18  1  0  0  0
 16 19  1  0  0  0
 17 28  2  0  0  0
 17 29  1  0  0  0
 18 40  1  0  0  0
 18 41  1  0  0  0
 19 42  1  0  0  0
 19 43  1  0  0  0
 20 24  1  0  0  0
 20 23  2  0  0  0
 20 44  1  0  0  0
 21 26  1  0  0  0
 21 45  1  0  0  0
 21 46  1  0  0  0
 22 26  1  0  0  0
 22 47  1  0  0  0
 22 48  1  0  0  0
 23 49  1  0  0  0
 24 50  1  0  0  0
 25 30  1  0  0  0
 25 51  1  0  0  0
 25 52  1  0  0  0
 26 53  1  0  0  0
 26 54  1  0  0  0
 27 55  1  0  0  0
 27 56  1  0  0  0
 27 57  1  0  0  0
 28 33  1  0  0  0
 28 58  1  0  0  0
 29 34  2  0  0  0
 29 59  1  0  0  0
 30 31  1  0  0  0
 30 60  1  0  0  0
 30 61  1  0  0  0
 31 32  1  0  0  0
 31 62  1  0  0  0
 31 63  1  0  0  0
 32 64  1  0  0  0
 32 65  1  0  0  0
 32 66  1  0  0  0
 33 35  2  0  0  0
 33 67  1  0  0  0
 34 35  1  0  0  0
 34 68  1  0  0  0
 35 69  1  0  0  0
M  END
> <chembl_id>
CHEMBL188278

> <chembl_pref_name>
None

> <i_m_ct_stereo_status>
1

> <s_m_source_file>
sdf/inactives_sanitized.sdf

> <i_m_source_file_index>
268

> <i_lp_mmshare_version>
49012

> <i_f3d_flags>
0

> <s_epik_input>
W2NIXTFbY0hdW2NIXVtjSF1bY0hdYzFbQ0BASF0oW0NIM10pW05IXUMoPU8pQyg9TylbQ0BIXShbQ0gyXVtDSDJdW0NIMl1bQ0gzXSlbTkhdQyg9TylPW0NIMl1DMihbQ0gyXVtDSDJdW0NIMl0yKVtDSDJdT2MzbltjSF1bY0hdW2NIXW4z

> <s_epik_cmdline>
J2VwaWtfcHl0aG9uJywgJy1waHQnLCAnMC41JywgJy1waCcsICc3LjUnLCAnLW50JywgJy1tYScsICcyMDAnLCAnLWltYWUnLCAnPGluZmlsZS5tYWU+JywgJy1vbWFlJywgJzxvdXRmaWxlLm1hZT4n

> <r_lp_tautomer_probability>
1

> <r_epik_Ionization_Penalty>
  0.0000

> <r_epik_Ionization_Penalty_Charging>
  0.0000

> <r_epik_Ionization_Penalty_Neutral>
  0.0000

> <r_epik_State_Penalty>
 -0.0000

> <r_epik_Charging_Adjusted_Penalty>
0

> <i_epik_Tot_Q>
0

> <i_epik_Tot_abs_Q>
0

> <s_epik_Chemistry_Notes>
This compound has an ester and may undergo hydrolysis at high or low pH.

> <s_lp_Force_Field>
OPLS3e

> <r_lp_Energy>
55.039112

> <b_lp_Chiralities_Consistent>
1

> <s_lp_Variant>
sdf/inactives_sanitized.sdf:268-1

$$$$
sdf/inactives_sanitized.sdf:269
                    3D
 Schrodinger Suite 2020-1.
 53 56  0  0  1  0            999 V2000
   -0.8688    2.4612    0.5044 N   0  0  0  0  0  0
   -1.9575    3.2727    0.5872 C   0  0  0  0  0  0
   -3.2678    2.9216    0.5200 N   0  0  0  0  0  0
   -3.5348    1.6009    0.3474 C   0  0  0  0  0  0
   -1.1803    1.1661    0.3340 C   0  0  0  0  0  0
   -2.5013    0.6550    0.2437 C   0  0  0  0  0  0
   -2.3883   -0.7545    0.0625 C   0  0  0  0  0  0
   -1.0381   -1.0744    0.0372 C   0  0  0  0  0  0
   -0.3044    0.0964    0.2194 N   0  0  0  0  0  0
   -1.6838    4.6883    0.7695 C   0  0  0  0  0  0
   -1.4654    5.8157    0.9148 N   0  0  0  0  0  0
   -0.3900   -2.4439   -0.1330 C   0  0  0  0  0  0
    0.4623   -2.5810   -1.3908 C   0  0  0  0  0  0
    1.7934   -2.9958   -1.2879 C   0  0  0  0  0  0
    2.5856   -3.0870   -2.4286 C   0  0  0  0  0  0
    2.0444   -2.7702   -3.6729 C   0  0  0  0  0  0
    0.7117   -2.3779   -3.7865 C   0  0  0  0  0  0
   -0.0815   -2.2884   -2.6457 C   0  0  0  0  0  0
    3.0342   -2.8614   -5.0838 Cl  0  0  0  0  0  0
    1.1560    0.2121    0.2464 C   0  0  0  0  0  0
    1.6961    0.6910   -1.1202 C   0  0  0  0  0  0
    3.2331    0.5700   -1.2725 C   0  0  0  0  0  0
    3.9744    1.4521   -0.2325 C   0  0  0  0  0  0
    5.4675    1.7606   -0.4651 C   0  0  0  0  0  0
    3.6675    0.7947   -2.7449 C   0  0  0  0  0  0
    6.3247    0.6177   -1.0376 C   0  0  0  0  0  0
    4.9355    0.0226   -3.1669 C   0  0  0  0  0  0
    6.2683    0.5106   -2.5729 C   0  0  0  0  0  0
   -4.5739    1.3119    0.2925 H   0  0  0  0  0  0
   -3.1925   -1.4674   -0.0454 H   0  0  0  0  0  0
    0.1911   -2.7045    0.7529 H   0  0  0  0  0  0
   -1.1730   -3.2003   -0.2010 H   0  0  0  0  0  0
    2.2229   -3.2301   -0.3247 H   0  0  0  0  0  0
    3.6179   -3.3934   -2.3442 H   0  0  0  0  0  0
    0.2942   -2.1371   -4.7532 H   0  0  0  0  0  0
   -1.1113   -1.9744   -2.7354 H   0  0  0  0  0  0
    1.4385    0.9008    1.0438 H   0  0  0  0  0  0
    1.5866   -0.7501    0.5213 H   0  0  0  0  0  0
    1.2192    0.1067   -1.9071 H   0  0  0  0  0  0
    1.3894    1.7231   -1.2978 H   0  0  0  0  0  0
    3.4738   -0.4697   -1.0437 H   0  0  0  0  0  0
    3.4601    2.4103   -0.1405 H   0  0  0  0  0  0
    3.8788    0.9760    0.7447 H   0  0  0  0  0  0
    5.5572    2.6337   -1.1132 H   0  0  0  0  0  0
    5.8956    2.0769    0.4872 H   0  0  0  0  0  0
    2.8698    0.4634   -3.4118 H   0  0  0  0  0  0
    3.7760    1.8604   -2.9513 H   0  0  0  0  0  0
    7.3628    0.7970   -0.7542 H   0  0  0  0  0  0
    6.0553   -0.3330   -0.5750 H   0  0  0  0  0  0
    4.8061   -1.0342   -2.9296 H   0  0  0  0  0  0
    5.0166    0.0605   -4.2542 H   0  0  0  0  0  0
    6.5225    1.4774   -3.0101 H   0  0  0  0  0  0
    7.0558   -0.1687   -2.9023 H   0  0  0  0  0  0
  1  2  2  0  0  0
  1  5  1  0  0  0
  2  3  1  0  0  0
  2 10  1  0  0  0
  3  4  2  0  0  0
  4  6  1  0  0  0
  4 29  1  0  0  0
  5  9  1  0  0  0
  5  6  2  0  0  0
  6  7  1  0  0  0
  7  8  2  0  0  0
  7 30  1  0  0  0
  8  9  1  0  0  0
  8 12  1  0  0  0
  9 20  1  0  0  0
 10 11  3  0  0  0
 12 13  1  0  0  0
 12 31  1  0  0  0
 12 32  1  0  0  0
 13 14  2  0  0  0
 13 18  1  0  0  0
 14 15  1  0  0  0
 14 33  1  0  0  0
 15 16  2  0  0  0
 15 34  1  0  0  0
 16 17  1  0  0  0
 16 19  1  0  0  0
 17 18  2  0  0  0
 17 35  1  0  0  0
 18 36  1  0  0  0
 20 21  1  0  0  0
 20 37  1  0  0  0
 20 38  1  0  0  0
 21 22  1  0  0  0
 21 39  1  0  0  0
 21 40  1  0  0  0
 22 23  1  0  0  0
 22 25  1  0  0  0
 22 41  1  0  0  0
 23 24  1  0  0  0
 23 42  1  0  0  0
 23 43  1  0  0  0
 24 26  1  0  0  0
 24 44  1  0  0  0
 24 45  1  0  0  0
 25 27  1  0  0  0
 25 46  1  0  0  0
 25 47  1  0  0  0
 26 28  1  0  0  0
 26 48  1  0  0  0
 26 49  1  0  0  0
 27 28  1  0  0  0
 27 50  1  0  0  0
 27 51  1  0  0  0
 28 52  1  0  0  0
 28 53  1  0  0  0
M  END
> <chembl_id>
CHEMBL492847

> <chembl_pref_name>
None

> <s_m_source_file>
sdf/inactives_sanitized.sdf

> <i_m_source_file_index>
269

> <i_lp_mmshare_version>
49012

> <i_m_ct_stereo_status>
1

> <i_f3d_flags>
0

> <s_epik_input>
TiNDYyhuMSluW2NIXWMoYzEyKVtjSF1jKFtDSDJdYzNbY0hdW2NIXWMoQ2wpW2NIXVtjSF0zKW4yW0NIMl1bQ0gyXVtDSF00W0NIMl1bQ0gyXVtDSDJdW0NIMl1bQ0gyXVtDSDJdNA==

> <s_epik_cmdline>
J2VwaWtfcHl0aG9uJywgJy1waHQnLCAnMC41JywgJy1waCcsICc3LjUnLCAnLW50JywgJy1tYScsICcyMDAnLCAnLWltYWUnLCAnPGluZmlsZS5tYWU+JywgJy1vbWFlJywgJzxvdXRmaWxlLm1hZT4n

> <r_lp_tautomer_probability>
1

> <r_epik_Ionization_Penalty>
  0.0000

> <r_epik_Ionization_Penalty_Charging>
  0.0000

> <r_epik_Ionization_Penalty_Neutral>
  0.0000

> <r_epik_State_Penalty>
 -0.0000

> <r_epik_Charging_Adjusted_Penalty>
0

> <i_epik_Tot_Q>
0

> <i_epik_Tot_abs_Q>
0

> <s_lp_Force_Field>
OPLS3e

> <r_lp_Energy>
39.101263

> <b_lp_Chiralities_Consistent>
1

> <s_lp_Variant>
sdf/inactives_sanitized.sdf:269-1

$$$$
sdf/inactives_sanitized.sdf:270
                    3D
 Schrodinger Suite 2020-1.
 29 31  0  0  1  0            999 V2000
   -1.9161   -1.2973   -1.3049 C   0  0  0  0  0  0
   -0.5416   -0.5488   -1.2371 C   0  0  0  0  0  0
   -0.1363   -0.0389    0.1839 C   0  0  1  0  0  0
   -0.7752   -0.8865    1.3396 C   0  0  1  0  0  0
   -2.0816   -2.0255   -0.0355 N   0  0  0  0  0  0
   -2.2499   -1.1074    1.0798 C   0  0  0  0  0  0
   -1.2113   -2.9738    0.4044 C   0  0  0  0  0  0
   -0.3799   -2.2599    1.2842 O   0  0  0  0  0  0
   -1.0321   -4.5729    0.0006 S   0  0  0  0  0  0
    1.2894   -0.0437    0.3059 O   0  0  0  0  0  0
    1.9342    0.6992    1.2793 C   0  0  0  0  0  0
    3.3208    0.5477    1.3471 C   0  0  0  0  0  0
    4.0661    1.2517    2.2888 C   0  0  0  0  0  0
    3.4222    2.1165    3.1692 C   0  0  0  0  0  0
    2.0412    2.2825    3.1141 C   0  0  0  0  0  0
    1.2967    1.5775    2.1718 C   0  0  0  0  0  0
   -1.9484   -2.0073   -2.1325 H   0  0  0  0  0  0
   -2.7504   -0.6030   -1.4163 H   0  0  0  0  0  0
    0.2284   -1.2368   -1.5910 H   0  0  0  0  0  0
   -0.5572    0.2727   -1.9539 H   0  0  0  0  0  0
   -0.4539    1.0035    0.2345 H   0  0  0  0  0  0
   -0.5892   -0.4643    2.3267 H   0  0  0  0  0  0
   -2.7558   -1.5750    1.9290 H   0  0  0  0  0  0
   -2.7878   -0.1921    0.8261 H   0  0  0  0  0  0
    3.8230   -0.1226    0.6647 H   0  0  0  0  0  0
    5.1380    1.1276    2.3352 H   0  0  0  0  0  0
    3.9987    2.6637    3.9005 H   0  0  0  0  0  0
    1.5490    2.9567    3.7995 H   0  0  0  0  0  0
    0.2290    1.7297    2.1540 H   0  0  0  0  0  0
  1  5  1  0  0  0
  1  2  1  0  0  0
  1 17  1  0  0  0
  1 18  1  0  0  0
  2  3  1  0  0  0
  2 19  1  0  0  0
  2 20  1  0  0  0
  3  4  1  0  0  0
  3 10  1  0  0  0
  3 21  1  0  0  0
  4  6  1  0  0  0
  4  8  1  0  0  0
  4 22  1  0  0  0
  5  6  1  0  0  0
  5  7  1  0  0  0
  6 23  1  0  0  0
  6 24  1  0  0  0
  7  8  1  0  0  0
  7  9  2  0  0  0
 10 11  1  0  0  0
 11 12  2  0  0  0
 11 16  1  0  0  0
 12 13  1  0  0  0
 12 25  1  0  0  0
 13 14  2  0  0  0
 13 26  1  0  0  0
 14 15  1  0  0  0
 14 27  1  0  0  0
 15 16  2  0  0  0
 15 28  1  0  0  0
 16 29  1  0  0  0
M  END
> <chembl_id>
CHEMBL390643

> <chembl_pref_name>
None

> <i_m_ct_stereo_status>
1

> <s_m_source_file>
sdf/inactives_sanitized.sdf

> <i_m_source_file_index>
270

> <i_lp_mmshare_version>
49012

> <i_f3d_flags>
0

> <s_epik_input>
TzFDKD1TKU4oW0NIMl0yKVtDSDJdW0NIMl1bQ0BASF0oW0NIXTEyKU9jM1tjSF1bY0hdW2NIXVtjSF1bY0hdMw==

> <s_epik_cmdline>
J2VwaWtfcHl0aG9uJywgJy1waHQnLCAnMC41JywgJy1waCcsICc3LjUnLCAnLW50JywgJy1tYScsICcyMDAnLCAnLWltYWUnLCAnPGluZmlsZS5tYWU+JywgJy1vbWFlJywgJzxvdXRmaWxlLm1hZT4n

> <r_lp_tautomer_probability>
1

> <r_epik_Ionization_Penalty>
  0.0000

> <r_epik_Ionization_Penalty_Charging>
  0.0000

> <r_epik_Ionization_Penalty_Neutral>
  0.0000

> <r_epik_State_Penalty>
 -0.0000

> <r_epik_Charging_Adjusted_Penalty>
0

> <i_epik_Tot_Q>
0

> <i_epik_Tot_abs_Q>
0

> <s_lp_Force_Field>
OPLS3e

> <r_lp_Energy>
43.621765

> <b_lp_Chiralities_Consistent>
1

> <s_lp_Variant>
sdf/inactives_sanitized.sdf:270-1

$$$$
sdf/inactives_sanitized.sdf:271
                    3D
 Schrodinger Suite 2020-1.
 60 61  0  0  1  0            999 V2000
    5.3263    0.8057   -2.8509 C   0  0  0  0  0  0
    3.5741    0.6217   -1.1808 C   0  0  0  0  0  0
    2.0671    0.1384   -1.0539 C   0  0  0  0  0  0
    4.0468    0.4724   -2.4367 N   0  0  0  0  0  0
    5.8006    0.4833   -4.1043 N   0  0  0  0  0  0
    7.0499    0.9248   -4.3194 N   0  0  0  0  0  0
    6.3845    1.4691   -2.2386 C   0  0  0  0  0  0
   -0.7081    1.3231   -0.2405 C   0  0  0  0  0  0
   -0.0093    0.2447    0.2986 N   0  0  0  0  0  0
    1.4691    0.2243    0.3595 C   0  0  1  0  0  0
    7.4015    1.5042   -3.1954 C   0  0  0  0  0  0
    1.4494   -0.2626   -2.0470 O   0  0  0  0  0  0
    4.1827    1.0695   -0.2063 O   0  0  0  0  0  0
   -0.2202    2.3229   -0.7740 O   0  0  0  0  0  0
   -2.0252    1.1123   -0.0643 O   0  0  0  0  0  0
   -4.4423    1.6418   -0.1616 C   0  0  0  0  0  0
   -2.9869    2.0695   -0.5024 C   0  0  0  0  0  0
    5.1006   -0.1810   -5.1961 C   0  0  0  0  0  0
    1.9688   -0.9775    1.2067 C   0  0  0  0  0  0
   -5.4641    2.7058   -0.6597 C   0  0  0  0  0  0
   -4.7739    0.2417   -0.7591 C   0  0  0  0  0  0
   -4.6088    1.4442    1.3772 C   0  0  0  0  0  0
    1.4930   -0.9439    2.6739 C   0  0  0  0  0  0
    2.0399   -2.1164    3.5067 C   0  0  0  0  0  0
   -5.4666    2.9779   -2.1759 C   0  0  0  0  0  0
    1.5643   -2.0859    4.9655 C   0  0  0  0  0  0
   -4.7484   -0.7471    0.4072 C   0  0  0  0  0  0
   -5.2740    0.0797    1.5745 C   0  0  0  0  0  0
    3.4324    0.0720   -3.1309 H   0  0  0  0  0  0
    6.4193    1.8825   -1.2415 H   0  0  0  0  0  0
   -0.5005   -0.3286    0.9686 H   0  0  0  0  0  0
    1.7798    1.1382    0.8718 H   0  0  0  0  0  0
    8.3761    1.9524   -3.0694 H   0  0  0  0  0  0
   -2.8785    2.1958   -1.5803 H   0  0  0  0  0  0
   -2.7725    3.0373   -0.0455 H   0  0  0  0  0  0
    4.3384   -0.8523   -4.7994 H   0  0  0  0  0  0
    5.8020   -0.7670   -5.7925 H   0  0  0  0  0  0
    4.6268    0.5702   -5.8286 H   0  0  0  0  0  0
    1.6331   -1.9125    0.7527 H   0  0  0  0  0  0
    3.0601   -1.0090    1.2069 H   0  0  0  0  0  0
   -6.4715    2.4080   -0.3639 H   0  0  0  0  0  0
   -5.2810    3.6499   -0.1442 H   0  0  0  0  0  0
   -5.7873    0.2200   -1.1653 H   0  0  0  0  0  0
   -4.1024   -0.0569   -1.5657 H   0  0  0  0  0  0
   -3.6426    1.3997    1.8828 H   0  0  0  0  0  0
   -5.1823    2.2362    1.8615 H   0  0  0  0  0  0
    1.8023   -0.0031    3.1321 H   0  0  0  0  0  0
    0.4027   -0.9623    2.7099 H   0  0  0  0  0  0
    1.7376   -3.0611    3.0526 H   0  0  0  0  0  0
    3.1306   -2.1035    3.4873 H   0  0  0  0  0  0
   -6.2451    3.6961   -2.4346 H   0  0  0  0  0  0
   -5.6567    2.0710   -2.7500 H   0  0  0  0  0  0
   -4.5192    3.3969   -2.5138 H   0  0  0  0  0  0
    1.9644   -2.9331    5.5230 H   0  0  0  0  0  0
    0.4766   -2.1332    5.0284 H   0  0  0  0  0  0
    1.8900   -1.1752    5.4693 H   0  0  0  0  0  0
   -5.3566   -1.6322    0.2181 H   0  0  0  0  0  0
   -3.7278   -1.0800    0.6043 H   0  0  0  0  0  0
   -5.0342   -0.3661    2.5406 H   0  0  0  0  0  0
   -6.3597    0.1746    1.5134 H   0  0  0  0  0  0
  1  4  1  0  0  0
  1  5  1  0  0  0
  1  7  2  0  0  0
  2  4  1  0  0  0
  2  3  1  0  0  0
  2 13  2  0  0  0
  3 10  1  0  0  0
  3 12  2  0  0  0
  4 29  1  0  0  0
  5  6  1  0  0  0
  5 18  1  0  0  0
  6 11  2  0  0  0
  7 11  1  0  0  0
  7 30  1  0  0  0
  8  9  1  0  0  0
  8 14  2  0  0  0
  8 15  1  0  0  0
  9 10  1  0  0  0
  9 31  1  0  0  0
 10 19  1  0  0  0
 10 32  1  0  0  0
 11 33  1  0  0  0
 15 17  1  0  0  0
 16 17  1  0  0  0
 16 20  1  0  0  0
 16 21  1  0  0  0
 16 22  1  0  0  0
 17 34  1  0  0  0
 17 35  1  0  0  0
 18 36  1  0  0  0
 18 37  1  0  0  0
 18 38  1  0  0  0
 19 23  1  0  0  0
 19 39  1  0  0  0
 19 40  1  0  0  0
 20 25  1  0  0  0
 20 41  1  0  0  0
 20 42  1  0  0  0
 21 27  1  0  0  0
 21 43  1  0  0  0
 21 44  1  0  0  0
 22 28  1  0  0  0
 22 45  1  0  0  0
 22 46  1  0  0  0
 23 24  1  0  0  0
 23 47  1  0  0  0
 23 48  1  0  0  0
 24 26  1  0  0  0
 24 49  1  0  0  0
 24 50  1  0  0  0
 25 51  1  0  0  0
 25 52  1  0  0  0
 25 53  1  0  0  0
 26 54  1  0  0  0
 26 55  1  0  0  0
 26 56  1  0  0  0
 27 28  1  0  0  0
 27 57  1  0  0  0
 27 58  1  0  0  0
 28 59  1  0  0  0
 28 60  1  0  0  0
M  END
> <chembl_id>
CHEMBL425535

> <chembl_pref_name>
None

> <i_m_ct_stereo_status>
1

> <s_m_source_file>
sdf/inactives_sanitized.sdf

> <i_m_source_file_index>
271

> <i_lp_mmshare_version>
49012

> <i_f3d_flags>
0

> <s_epik_input>
W2NIXTFbY0hdbm4oW0NIM10pYzFbTkhdQyg9TylDKD1PKVtDQEhdKFtDSDJdW0NIMl1bQ0gyXVtDSDNdKVtOSF1DKD1PKU9bQ0gyXUMyKFtDSDJdW0NIM10pW0NIMl1bQ0gyXVtDSDJdW0NIMl0y

> <s_epik_cmdline>
J2VwaWtfcHl0aG9uJywgJy1waHQnLCAnMC41JywgJy1waCcsICc3LjUnLCAnLW50JywgJy1tYScsICcyMDAnLCAnLWltYWUnLCAnPGluZmlsZS5tYWU+JywgJy1vbWFlJywgJzxvdXRmaWxlLm1hZT4n

> <r_lp_tautomer_probability>
1

> <r_epik_Ionization_Penalty>
  0.0000

> <r_epik_Ionization_Penalty_Charging>
  0.0000

> <r_epik_Ionization_Penalty_Neutral>
  0.0000

> <r_epik_State_Penalty>
 -0.0000

> <r_epik_Charging_Adjusted_Penalty>
0

> <i_epik_Tot_Q>
0

> <i_epik_Tot_abs_Q>
0

> <s_epik_Chemistry_Notes>
This compound has an ester and may undergo hydrolysis at high or low pH.

> <s_lp_Force_Field>
OPLS3e

> <r_lp_Energy>
34.816086

> <b_lp_Chiralities_Consistent>
1

> <s_lp_Variant>
sdf/inactives_sanitized.sdf:271-1

$$$$
sdf/inactives_sanitized.sdf:272
                    3D
 Schrodinger Suite 2020-1.
 40 41  0  0  1  0            999 V2000
   -0.3639    1.2422    0.3801 C   0  0  0  0  0  0
    0.1794   -0.0103    0.1400 N   0  0  0  0  0  0
   -0.5067   -1.1926   -0.1204 C   0  0  0  0  0  0
   -1.8815   -1.0301   -0.0122 N   0  0  0  0  0  0
   -2.5373    0.1940    0.0958 N   0  0  0  0  0  0
   -1.8252    1.2358    0.3058 C   0  0  0  0  0  0
    0.0353   -2.2749   -0.3703 O   0  0  0  0  0  0
   -2.5348    2.4883    0.4594 C   0  0  0  0  0  0
   -3.1302    3.4767    0.5534 N   0  0  0  0  0  0
    0.2831    2.2657    0.6173 O   0  0  0  0  0  0
    1.6625   -0.1125    0.1629 C   0  0  0  0  0  0
    2.3362   -0.0745   -1.2285 C   0  0  0  0  0  0
    2.1275    1.2341   -2.0054 C   0  0  0  0  0  0
   -2.7398   -2.2309   -0.0530 C   0  0  0  0  0  0
   -3.0449   -2.7630   -1.4782 C   0  0  0  0  0  0
   -3.7771   -1.7299   -2.3704 C   0  0  0  0  0  0
   -4.0067   -2.2768   -3.7940 C   0  0  0  0  0  0
   -4.7721   -3.6179   -3.7728 C   0  0  0  0  0  0
   -4.1325   -4.6466   -2.8156 C   0  0  0  0  0  0
   -3.9048   -4.0472   -1.4129 C   0  0  0  0  0  0
    2.0874    0.6904    0.7679 H   0  0  0  0  0  0
    1.9639   -1.0244    0.6820 H   0  0  0  0  0  0
    3.4080   -0.2200   -1.0903 H   0  0  0  0  0  0
    2.0035   -0.9209   -1.8302 H   0  0  0  0  0  0
    2.6863    1.2231   -2.9416 H   0  0  0  0  0  0
    2.4654    2.0951   -1.4280 H   0  0  0  0  0  0
    1.0771    1.3870   -2.2536 H   0  0  0  0  0  0
   -2.2849   -3.0292    0.5386 H   0  0  0  0  0  0
   -3.6786   -2.0225    0.4651 H   0  0  0  0  0  0
   -2.1040   -3.0301   -1.9637 H   0  0  0  0  0  0
   -4.7239   -1.4418   -1.9103 H   0  0  0  0  0  0
   -3.2039   -0.8043   -2.4260 H   0  0  0  0  0  0
   -4.5547   -1.5460   -4.3899 H   0  0  0  0  0  0
   -3.0446   -2.4144   -4.2900 H   0  0  0  0  0  0
   -5.8028   -3.4356   -3.4642 H   0  0  0  0  0  0
   -4.8274   -4.0312   -4.7805 H   0  0  0  0  0  0
   -4.7657   -5.5317   -2.7448 H   0  0  0  0  0  0
   -3.1802   -4.9854   -3.2267 H   0  0  0  0  0  0
   -3.4183   -4.7862   -0.7745 H   0  0  0  0  0  0
   -4.8569   -3.8408   -0.9208 H   0  0  0  0  0  0
  1 10  2  0  0  0
  1  6  1  0  0  0
  1  2  1  0  0  0
  2  3  1  0  0  0
  2 11  1  0  0  0
  3  7  2  0  0  0
  3  4  1  0  0  0
  4 14  1  0  0  0
  4  5  1  0  0  0
  5  6  2  0  0  0
  6  8  1  0  0  0
  8  9  3  0  0  0
 11 12  1  0  0  0
 11 21  1  0  0  0
 11 22  1  0  0  0
 12 13  1  0  0  0
 12 23  1  0  0  0
 12 24  1  0  0  0
 13 25  1  0  0  0
 13 26  1  0  0  0
 13 27  1  0  0  0
 14 15  1  0  0  0
 14 28  1  0  0  0
 14 29  1  0  0  0
 15 16  1  0  0  0
 15 20  1  0  0  0
 15 30  1  0  0  0
 16 17  1  0  0  0
 16 31  1  0  0  0
 16 32  1  0  0  0
 17 18  1  0  0  0
 17 33  1  0  0  0
 17 34  1  0  0  0
 18 19  1  0  0  0
 18 35  1  0  0  0
 18 36  1  0  0  0
 19 20  1  0  0  0
 19 37  1  0  0  0
 19 38  1  0  0  0
 20 39  1  0  0  0
 20 40  1  0  0  0
M  END
> <chembl_id>
CHEMBL1077338

> <chembl_pref_name>
None

> <s_m_source_file>
sdf/inactives_sanitized.sdf

> <i_m_source_file_index>
272

> <i_lp_mmshare_version>
49012

> <i_m_ct_stereo_status>
1

> <i_f3d_flags>
0

> <s_epik_input>
W0NIM11bQ0gyXVtDSDJdbihjMT1PKWMoPU8pbihuYzFDI04pW0NIMl1bQ0hdMltDSDJdW0NIMl1bQ0gyXVtDSDJdW0NIMl0y

> <s_epik_cmdline>
J2VwaWtfcHl0aG9uJywgJy1waHQnLCAnMC41JywgJy1waCcsICc3LjUnLCAnLW50JywgJy1tYScsICcyMDAnLCAnLWltYWUnLCAnPGluZmlsZS5tYWU+JywgJy1vbWFlJywgJzxvdXRmaWxlLm1hZT4n

> <r_lp_tautomer_probability>
1

> <r_epik_Ionization_Penalty>
  0.0000

> <r_epik_Ionization_Penalty_Charging>
  0.0000

> <r_epik_Ionization_Penalty_Neutral>
  0.0000

> <r_epik_State_Penalty>
 -0.0000

> <r_epik_Charging_Adjusted_Penalty>
4.42443611338975e-12

> <i_epik_Tot_Q>
0

> <i_epik_Tot_abs_Q>
0

> <s_lp_Force_Field>
OPLS3e

> <r_lp_Energy>
35.671213

> <b_lp_Chiralities_Consistent>
1

> <s_lp_Variant>
sdf/inactives_sanitized.sdf:272-1

$$$$
sdf/inactives_sanitized.sdf:273
                    3D
 Schrodinger Suite 2020-1.
 81 84  0  0  1  0            999 V2000
   -5.0701    0.7365   -3.4887 N   0  0  0  0  0  0
   -5.8655    0.3088   -2.4439 C   0  0  0  0  0  0
   -5.9178    0.8759   -4.5725 C   0  0  0  0  0  0
   -7.1193    0.1689   -2.7970 N   0  0  0  0  0  0
   -0.1120   -0.6879   -3.1898 C   0  0  0  0  0  0
    0.2832   -1.5077   -1.8854 C   0  0  0  0  0  0
   -7.1621    0.5212   -4.0655 C   0  0  0  0  0  0
   -0.2749   -1.4797   -4.2685 N   0  0  0  0  0  0
   -1.2949    0.9769    0.1212 C   0  0  0  0  0  0
   -0.9769   -0.3205   -0.2608 N   0  0  0  0  0  0
    0.4069   -0.6952   -0.5971 C   0  0  1  0  0  0
   -5.2959   -0.0190   -0.8106 S   0  0  0  0  0  0
   -5.5425    1.3215   -5.9479 C   0  0  0  0  0  0
   -4.7264    2.0592    1.1091 C   0  0  0  0  0  0
   -0.7105   -1.0319   -5.5958 C   0  0  1  0  0  0
    0.5126   -2.7196   -1.9554 O   0  0  0  0  0  0
   -0.2503    0.5365   -3.1657 O   0  0  0  0  0  0
   -0.5223    1.9371    0.1787 O   0  0  0  0  0  0
   -2.6036    1.0259    0.4250 O   0  0  0  0  0  0
   -5.5553    1.6591   -0.1454 C   0  0  0  0  0  0
    0.1816    0.0429   -6.2276 C   0  0  0  0  0  0
   -6.3964    2.1875   -6.6376 C   0  0  0  0  0  0
   -4.3761    0.8621   -6.5674 C   0  0  0  0  0  0
   -3.2266    2.2544    0.7800 C   0  0  0  0  0  0
   -3.6460    1.0479   -3.4221 C   0  0  0  0  0  0
   -4.9013    2.1600   -8.5273 C   0  0  0  0  0  0
   -4.0530    1.2831   -7.8545 C   0  0  0  0  0  0
   -6.0739    2.6113   -7.9244 C   0  0  0  0  0  0
   -4.4984    2.6868  -10.1209 Cl  0  0  0  0  0  0
   -5.3326    3.2599    1.8669 C   0  0  0  0  0  0
   -5.0087    1.2088    2.3665 C   0  0  0  0  0  0
    1.0972   -1.4950    0.5421 C   0  0  0  0  0  0
   -6.0231    2.2697    2.8153 C   0  0  0  0  0  0
   -0.8957   -2.2313   -6.5406 C   0  0  0  0  0  0
   -0.3801    1.2502   -6.6561 C   0  0  0  0  0  0
    1.5573   -0.1727   -6.3699 C   0  0  0  0  0  0
    1.2878   -0.6881    1.8426 C   0  0  0  0  0  0
    2.0535   -1.4683    2.9253 C   0  0  0  0  0  0
    2.2218   -0.6730    4.2270 C   0  0  0  0  0  0
    0.4251    2.2319   -7.2271 C   0  0  0  0  0  0
    2.3626    0.8096   -6.9401 C   0  0  0  0  0  0
    1.7925    2.0068   -7.3672 C   0  0  0  0  0  0
   -8.0894    0.5075   -4.6195 H   0  0  0  0  0  0
   -0.1665   -2.4764   -4.1473 H   0  0  0  0  0  0
   -1.6661   -1.0505   -0.1540 H   0  0  0  0  0  0
    1.0308    0.1769   -0.8101 H   0  0  0  0  0  0
   -1.7040   -0.6068   -5.4509 H   0  0  0  0  0  0
   -6.6215    1.7343    0.0728 H   0  0  0  0  0  0
   -5.3676    2.3890   -0.9345 H   0  0  0  0  0  0
   -7.3075    2.5410   -6.1765 H   0  0  0  0  0  0
   -3.7234    0.1702   -6.0592 H   0  0  0  0  0  0
   -2.7101    2.6738    1.6455 H   0  0  0  0  0  0
   -3.1167    2.9730   -0.0343 H   0  0  0  0  0  0
   -3.3887    1.8183   -4.1488 H   0  0  0  0  0  0
   -3.0785    0.1436   -3.6383 H   0  0  0  0  0  0
   -3.3787    1.4018   -2.4264 H   0  0  0  0  0  0
   -3.1491    0.9271   -8.3272 H   0  0  0  0  0  0
   -6.7331    3.2869   -8.4497 H   0  0  0  0  0  0
   -4.5943    3.8860    2.3725 H   0  0  0  0  0  0
   -5.9996    3.9018    1.2891 H   0  0  0  0  0  0
   -5.4189    0.2139    2.1898 H   0  0  0  0  0  0
   -4.1527    1.1227    3.0392 H   0  0  0  0  0  0
    0.5146   -2.3892    0.7738 H   0  0  0  0  0  0
    2.0757   -1.8384    0.2003 H   0  0  0  0  0  0
   -7.0502    2.0371    2.5280 H   0  0  0  0  0  0
   -5.9893    2.5319    3.8733 H   0  0  0  0  0  0
   -1.3158   -1.9172   -7.4969 H   0  0  0  0  0  0
   -1.5775   -2.9688   -6.1145 H   0  0  0  0  0  0
    0.0502   -2.7359   -6.7420 H   0  0  0  0  0  0
   -1.4378    1.4343   -6.5424 H   0  0  0  0  0  0
    2.0013   -1.1000   -6.0381 H   0  0  0  0  0  0
    1.8214    0.2376    1.6202 H   0  0  0  0  0  0
    0.3144   -0.3964    2.2392 H   0  0  0  0  0  0
    1.5322   -2.4016    3.1428 H   0  0  0  0  0  0
    3.0380   -1.7488    2.5484 H   0  0  0  0  0  0
    2.7702   -1.2534    4.9695 H   0  0  0  0  0  0
    1.2550   -0.4123    4.6590 H   0  0  0  0  0  0
    2.7732    0.2525    4.0571 H   0  0  0  0  0  0
   -0.0088    3.1644   -7.5568 H   0  0  0  0  0  0
    3.4244    0.6447   -7.0499 H   0  0  0  0  0  0
    2.4175    2.7692   -7.8089 H   0  0  0  0  0  0
  1  2  1  0  0  0
  1  3  1  0  0  0
  1 25  1  0  0  0
  2  4  2  0  0  0
  2 12  1  0  0  0
  3  7  2  0  0  0
  3 13  1  0  0  0
  4  7  1  0  0  0
  5  6  1  0  0  0
  5  8  1  0  0  0
  5 17  2  0  0  0
  6 11  1  0  0  0
  6 16  2  0  0  0
  7 43  1  0  0  0
  8 15  1  0  0  0
  8 44  1  0  0  0
  9 19  1  0  0  0
  9 10  1  0  0  0
  9 18  2  0  0  0
 10 11  1  0  0  0
 10 45  1  0  0  0
 11 32  1  0  0  0
 11 46  1  0  0  0
 12 20  1  0  0  0
 13 22  2  0  0  0
 13 23  1  0  0  0
 14 20  1  0  0  0
 14 24  1  0  0  0
 14 30  1  0  0  0
 14 31  1  0  0  0
 15 21  1  0  0  0
 15 34  1  0  0  0
 15 47  1  0  0  0
 19 24  1  0  0  0
 20 48  1  0  0  0
 20 49  1  0  0  0
 21 35  2  0  0  0
 21 36  1  0  0  0
 22 28  1  0  0  0
 22 50  1  0  0  0
 23 27  2  0  0  0
 23 51  1  0  0  0
 24 52  1  0  0  0
 24 53  1  0  0  0
 25 54  1  0  0  0
 25 55  1  0  0  0
 25 56  1  0  0  0
 26 27  1  0  0  0
 26 29  1  0  0  0
 26 28  2  0  0  0
 27 57  1  0  0  0
 28 58  1  0  0  0
 30 33  1  0  0  0
 30 59  1  0  0  0
 30 60  1  0  0  0
 31 33  1  0  0  0
 31 61  1  0  0  0
 31 62  1  0  0  0
 32 37  1  0  0  0
 32 63  1  0  0  0
 32 64  1  0  0  0
 33 65  1  0  0  0
 33 66  1  0  0  0
 34 67  1  0  0  0
 34 68  1  0  0  0
 34 69  1  0  0  0
 35 40  1  0  0  0
 35 70  1  0  0  0
 36 41  2  0  0  0
 36 71  1  0  0  0
 37 38  1  0  0  0
 37 72  1  0  0  0
 37 73  1  0  0  0
 38 39  1  0  0  0
 38 74  1  0  0  0
 38 75  1  0  0  0
 39 76  1  0  0  0
 39 77  1  0  0  0
 39 78  1  0  0  0
 40 42  2  0  0  0
 40 79  1  0  0  0
 41 42  1  0  0  0
 41 80  1  0  0  0
 42 81  1  0  0  0
M  END
> <chembl_id>
CHEMBL363538

> <chembl_pref_name>
None

> <i_m_ct_stereo_status>
1

> <s_m_source_file>
sdf/inactives_sanitized.sdf

> <i_m_source_file_index>
273

> <i_lp_mmshare_version>
49012

> <i_f3d_flags>
0

> <s_epik_input>
W2NIXTFbY0hdYyhDbClbY0hdW2NIXWMxLWMyW2NIXW5jKG4yW0NIM10pU1tDSDJdQzMoW0NIMl1bQ0gyXVtDSDJdMylbQ0gyXU9DKD1PKVtOSF1bQ0BASF0oW0NIMl1bQ0gyXVtDSDJdW0NIM10pQyg9TylDKD1PKVtOSF1bQ0BIXShbQ0gzXSljNFtjSF1bY0hdW2NIXVtjSF1bY0hdNA==

> <s_epik_cmdline>
J2VwaWtfcHl0aG9uJywgJy1waHQnLCAnMC41JywgJy1waCcsICc3LjUnLCAnLW50JywgJy1tYScsICcyMDAnLCAnLWltYWUnLCAnPGluZmlsZS5tYWU+JywgJy1vbWFlJywgJzxvdXRmaWxlLm1hZT4n

> <r_lp_tautomer_probability>
0.99990000499975

> <r_epik_Ionization_Penalty>
  0.3692

> <r_epik_Ionization_Penalty_Charging>
  0.3692

> <r_epik_Ionization_Penalty_Neutral>
  0.0000

> <r_epik_State_Penalty>
  0.3665

> <r_epik_Charging_Adjusted_Penalty>
0.73563445937864

> <i_epik_Tot_Q>
0

> <i_epik_Tot_abs_Q>
0

> <s_epik_Chemistry_Notes>
This compound has an ester and may undergo hydrolysis at high or low pH.

> <s_lp_Force_Field>
OPLS3e

> <r_lp_Energy>
52.222902

> <b_lp_Chiralities_Consistent>
1

> <s_lp_Variant>
sdf/inactives_sanitized.sdf:273-1

$$$$
sdf/inactives_sanitized.sdf:273
                    3D
 Schrodinger Suite 2020-1.
 82 85  0  0  1  0            999 V2000
   -5.1330    0.4538   -3.4054 N   0  0  0  0  0  0
   -5.9793    0.3571   -2.3102 C   0  0  0  0  0  0
   -5.8859    0.7883   -4.5372 C   0  0  0  0  0  0
   -7.2474    0.6325   -2.7644 N   0  3  0  0  0  0
   -0.2458   -0.5585   -3.3351 C   0  0  0  0  0  0
    0.1398   -1.4156   -2.0521 C   0  0  0  0  0  0
   -7.2064    0.9084   -4.1147 C   0  0  0  0  0  0
   -0.3701   -1.3151   -4.4435 N   0  0  0  0  0  0
   -1.4371    0.9948    0.0509 C   0  0  0  0  0  0
   -1.1164   -0.2862   -0.3818 N   0  0  0  0  0  0
    0.2676   -0.6387   -0.7425 C   0  0  1  0  0  0
   -5.5437   -0.0281   -0.6491 S   0  0  0  0  0  0
   -5.3278    0.9743   -5.9068 C   0  0  0  0  0  0
   -4.8246    2.0248    1.2449 C   0  0  0  0  0  0
   -0.7938   -0.8380   -5.7653 C   0  0  1  0  0  0
    0.3609   -2.6267   -2.1540 O   0  0  0  0  0  0
   -0.4130    0.6607   -3.2715 O   0  0  0  0  0  0
   -0.6706    1.9586    0.1229 O   0  0  0  0  0  0
   -2.7403    1.0247    0.3892 O   0  0  0  0  0  0
   -5.7341    1.6497    0.0396 C   0  0  0  0  0  0
    0.0594    0.2948   -6.3488 C   0  0  0  0  0  0
   -5.6329    2.1361   -6.6211 C   0  0  0  0  0  0
   -4.5232   -0.0106   -6.4877 C   0  0  0  0  0  0
   -3.3504    2.2352    0.8222 C   0  0  0  0  0  0
   -3.6841    0.2974   -3.3566 C   0  0  0  0  0  0
   -4.3016    1.3441   -8.4672 C   0  0  0  0  0  0
   -4.0109    0.1740   -7.7687 C   0  0  0  0  0  0
   -5.1141    2.3242   -7.8994 C   0  0  0  0  0  0
   -3.6484    1.5808  -10.0468 Cl  0  0  0  0  0  0
   -5.3815    3.2077    2.0661 C   0  0  0  0  0  0
   -5.0199    1.1478    2.5008 C   0  0  0  0  0  0
    0.9752   -1.4656    0.3663 C   0  0  0  0  0  0
   -6.0006    2.1970    3.0417 C   0  0  0  0  0  0
   -0.8923   -2.0141   -6.7511 C   0  0  0  0  0  0
   -0.5644    1.4251   -6.8877 C   0  0  0  0  0  0
    1.4571    0.2148   -6.3325 C   0  0  0  0  0  0
    1.1829   -0.6923    1.6845 C   0  0  0  0  0  0
    1.9619   -1.5014    2.7362 C   0  0  0  0  0  0
    2.1590   -0.7373    4.0523 C   0  0  0  0  0  0
    0.2012    2.4628   -7.4122 C   0  0  0  0  0  0
    2.2224    1.2533   -6.8559 C   0  0  0  0  0  0
    1.5910    2.3721   -7.3942 C   0  0  0  0  0  0
   -8.1116    1.1526   -4.6520 H   0  0  0  0  0  0
   -0.2394   -2.3126   -4.3526 H   0  0  0  0  0  0
   -1.7943   -1.0271   -0.2788 H   0  0  0  0  0  0
    0.8828    0.2442   -0.9353 H   0  0  0  0  0  0
   -1.8086   -0.4608   -5.6313 H   0  0  0  0  0  0
   -6.7833    1.7390    0.3237 H   0  0  0  0  0  0
   -5.5835    2.3864   -0.7512 H   0  0  0  0  0  0
   -6.2610    2.8997   -6.1847 H   0  0  0  0  0  0
   -4.2947   -0.9206   -5.9516 H   0  0  0  0  0  0
   -2.7822    2.6342    1.6648 H   0  0  0  0  0  0
   -3.2958    2.9785    0.0250 H   0  0  0  0  0  0
   -3.2071    0.9447   -4.0929 H   0  0  0  0  0  0
   -3.4306   -0.7411   -3.5696 H   0  0  0  0  0  0
   -3.3056    0.5566   -2.3685 H   0  0  0  0  0  0
   -3.3870   -0.5863   -8.2153 H   0  0  0  0  0  0
   -5.3413    3.2282   -8.4454 H   0  0  0  0  0  0
   -4.6123    3.8283    2.5307 H   0  0  0  0  0  0
   -6.0898    3.8571    1.5492 H   0  0  0  0  0  0
   -5.4419    0.1562    2.3332 H   0  0  0  0  0  0
   -4.1194    1.0482    3.1107 H   0  0  0  0  0  0
    0.3979   -2.3669    0.5827 H   0  0  0  0  0  0
    1.9497   -1.7978    0.0026 H   0  0  0  0  0  0
   -7.0454    1.9670    2.8250 H   0  0  0  0  0  0
   -5.8907    2.4390    4.0995 H   0  0  0  0  0  0
   -1.2843   -1.6906   -7.7159 H   0  0  0  0  0  0
   -1.5582   -2.7920   -6.3751 H   0  0  0  0  0  0
    0.0823   -2.4712   -6.9276 H   0  0  0  0  0  0
   -1.6412    1.5057   -6.8992 H   0  0  0  0  0  0
    1.9502   -0.6510   -5.9149 H   0  0  0  0  0  0
    1.7141    0.2384    1.4793 H   0  0  0  0  0  0
    0.2152   -0.4108    2.1016 H   0  0  0  0  0  0
    1.4375   -2.4358    2.9415 H   0  0  0  0  0  0
    2.9377   -1.7803    2.3360 H   0  0  0  0  0  0
    2.7116   -1.3404    4.7732 H   0  0  0  0  0  0
    1.2022   -0.4749    4.5053 H   0  0  0  0  0  0
    2.7194    0.1848    3.8945 H   0  0  0  0  0  0
   -0.2805    3.3349   -7.8295 H   0  0  0  0  0  0
    3.3005    1.1916   -6.8441 H   0  0  0  0  0  0
    2.1850    3.1779   -7.8001 H   0  0  0  0  0  0
   -8.0806    0.6379   -2.1923 H   0  0  0  0  0  0
  1  2  1  0  0  0
  1  3  1  0  0  0
  1 25  1  0  0  0
  2  4  2  0  0  0
  2 12  1  0  0  0
  3  7  2  0  0  0
  3 13  1  0  0  0
  4  7  1  0  0  0
  4 82  1  0  0  0
  5  6  1  0  0  0
  5  8  1  0  0  0
  5 17  2  0  0  0
  6 11  1  0  0  0
  6 16  2  0  0  0
  7 43  1  0  0  0
  8 15  1  0  0  0
  8 44  1  0  0  0
  9 19  1  0  0  0
  9 10  1  0  0  0
  9 18  2  0  0  0
 10 11  1  0  0  0
 10 45  1  0  0  0
 11 32  1  0  0  0
 11 46  1  0  0  0
 12 20  1  0  0  0
 13 22  2  0  0  0
 13 23  1  0  0  0
 14 20  1  0  0  0
 14 24  1  0  0  0
 14 30  1  0  0  0
 14 31  1  0  0  0
 15 21  1  0  0  0
 15 34  1  0  0  0
 15 47  1  0  0  0
 19 24  1  0  0  0
 20 48  1  0  0  0
 20 49  1  0  0  0
 21 35  2  0  0  0
 21 36  1  0  0  0
 22 28  1  0  0  0
 22 50  1  0  0  0
 23 27  2  0  0  0
 23 51  1  0  0  0
 24 52  1  0  0  0
 24 53  1  0  0  0
 25 54  1  0  0  0
 25 55  1  0  0  0
 25 56  1  0  0  0
 26 27  1  0  0  0
 26 29  1  0  0  0
 26 28  2  0  0  0
 27 57  1  0  0  0
 28 58  1  0  0  0
 30 33  1  0  0  0
 30 59  1  0  0  0
 30 60  1  0  0  0
 31 33  1  0  0  0
 31 61  1  0  0  0
 31 62  1  0  0  0
 32 37  1  0  0  0
 32 63  1  0  0  0
 32 64  1  0  0  0
 33 65  1  0  0  0
 33 66  1  0  0  0
 34 67  1  0  0  0
 34 68  1  0  0  0
 34 69  1  0  0  0
 35 40  1  0  0  0
 35 70  1  0  0  0
 36 41  2  0  0  0
 36 71  1  0  0  0
 37 38  1  0  0  0
 37 72  1  0  0  0
 37 73  1  0  0  0
 38 39  1  0  0  0
 38 74  1  0  0  0
 38 75  1  0  0  0
 39 76  1  0  0  0
 39 77  1  0  0  0
 39 78  1  0  0  0
 40 42  2  0  0  0
 40 79  1  0  0  0
 41 42  1  0  0  0
 41 80  1  0  0  0
 42 81  1  0  0  0
M  CHG  1   4   1
M  END
> <chembl_id>
CHEMBL363538

> <chembl_pref_name>
None

> <i_m_ct_stereo_status>
1

> <s_m_source_file>
sdf/inactives_sanitized.sdf

> <i_m_source_file_index>
273

> <i_lp_mmshare_version>
49012

> <i_f3d_flags>
0

> <s_epik_input>
W2NIXTFbY0hdYyhDbClbY0hdW2NIXWMxLWMyW2NIXW5jKG4yW0NIM10pU1tDSDJdQzMoW0NIMl1bQ0gyXVtDSDJdMylbQ0gyXU9DKD1PKVtOSF1bQ0BASF0oW0NIMl1bQ0gyXVtDSDJdW0NIM10pQyg9TylDKD1PKVtOSF1bQ0BIXShbQ0gzXSljNFtjSF1bY0hdW2NIXVtjSF1bY0hdNA==

> <s_epik_cmdline>
J2VwaWtfcHl0aG9uJywgJy1waHQnLCAnMC41JywgJy1waCcsICc3LjUnLCAnLW50JywgJy1tYScsICcyMDAnLCAnLWltYWUnLCAnPGluZmlsZS5tYWU+JywgJy1vbWFlJywgJzxvdXRmaWxlLm1hZT4n

> <r_lp_tautomer_probability>
0.99990000499975

> <r_epik_Ionization_Penalty>
  0.4553

> <r_epik_Ionization_Penalty_Charging>
  0.0000

> <r_epik_Ionization_Penalty_Neutral>
  0.4553

> <r_epik_State_Penalty>
  0.4584

> <r_epik_Charging_Adjusted_Penalty>
0.45844432210266

> <i_epik_Tot_Q>
1

> <i_epik_Tot_abs_Q>
1

> <s_epik_Chemistry_Notes>
This compound has an ester and may undergo hydrolysis at high or low pH.

> <s_lp_Force_Field>
OPLS3e

> <r_lp_Energy>
55.398616

> <b_lp_Chiralities_Consistent>
1

> <s_lp_Variant>
sdf/inactives_sanitized.sdf:273-2

$$$$
sdf/inactives_sanitized.sdf:274
                    3D
 Schrodinger Suite 2020-1.
 73 75  0  0  1  0            999 V2000
   -0.3786    2.1422   -0.5361 C   0  0  0  0  0  0
    0.5964    1.3790    0.0960 N   0  0  0  0  0  0
    2.0221    1.4967   -0.2628 C   0  0  2  0  0  0
    2.3219    0.2877   -1.1553 C   0  0  0  0  0  0
    1.6415    0.2898   -2.5815 C   0  0  0  0  0  0
    3.0438   -0.6576   -0.8257 O   0  0  0  0  0  0
    1.5577    1.3268   -3.2419 O   0  0  0  0  0  0
    1.1567   -0.9324   -2.8910 N   0  0  0  0  0  0
   -1.5927    1.6575   -0.1959 O   0  0  0  0  0  0
   -0.1889    3.0775   -1.3169 O   0  0  0  0  0  0
    2.9294    1.5240    0.9978 C   0  0  0  0  0  0
    2.6590    2.6844    1.9804 C   0  0  0  0  0  0
    2.8456    4.0890    1.3764 C   0  0  0  0  0  0
    2.7662    5.2020    2.4288 C   0  0  0  0  0  0
   -2.7834    2.0046   -0.9189 C   0  0  2  0  0  0
   -3.6348    2.9955   -0.0770 C   0  0  0  0  0  0
   -2.9020    4.2213    0.2100 N   0  0  0  0  0  0
   -3.5154    0.6933   -1.3665 C   0  0  0  0  0  0
   -2.5658   -0.1493   -2.2566 C   0  0  0  0  0  0
   -4.7663    1.0334   -2.2131 C   0  0  0  0  0  0
   -2.2527    4.5388    1.3960 C   0  0  0  0  0  0
   -1.6256    5.7814    1.2697 C   0  0  0  0  0  0
   -1.9151    6.2012   -0.0214 N   0  3  0  0  0  0
   -2.6863    5.2630   -0.6652 C   0  0  0  0  0  0
   -0.8067    6.5696    2.2372 C   0  0  0  0  0  0
    0.0027    7.6243    1.8026 C   0  0  0  0  0  0
    0.7688    8.3425    2.7160 C   0  0  0  0  0  0
    0.7352    8.0168    4.0749 C   0  0  0  0  0  0
   -0.0763    6.9640    4.5107 C   0  0  0  0  0  0
   -0.8425    6.2457    3.5966 C   0  0  0  0  0  0
   -3.9497   -0.1641   -0.1522 C   0  0  0  0  0  0
    1.5975    8.8068    5.0583 C   0  0  0  0  0  0
    0.3821   -1.2417   -3.9983 C   0  0  0  0  0  0
    1.6419    8.2404    6.2658 F   0  0  0  0  0  0
    2.8470    8.8994    4.6010 F   0  0  0  0  0  0
    1.0993   10.0362    5.1896 F   0  0  0  0  0  0
   -0.2994   -2.8342   -4.0703 S   0  0  0  0  0  0
   -1.0461   -2.3876   -5.5751 C   0  0  0  0  0  0
   -0.7038   -1.0730   -5.8780 C   0  0  0  0  0  0
    0.0752   -0.4583   -5.0098 N   0  0  0  0  0  0
    0.3160    0.6293    0.7115 H   0  0  0  0  0  0
    2.2293    2.4093   -0.8263 H   0  0  0  0  0  0
    1.3150   -1.6811   -2.2319 H   0  0  0  0  0  0
    2.8071    0.5945    1.5579 H   0  0  0  0  0  0
    3.9794    1.5571    0.7001 H   0  0  0  0  0  0
    1.6537    2.5932    2.3941 H   0  0  0  0  0  0
    3.3356    2.5717    2.8290 H   0  0  0  0  0  0
    3.8099    4.1478    0.8701 H   0  0  0  0  0  0
    2.0861    4.2686    0.6145 H   0  0  0  0  0  0
    2.8682    6.1843    1.9669 H   0  0  0  0  0  0
    3.5579    5.1025    3.1719 H   0  0  0  0  0  0
    1.8121    5.1787    2.9543 H   0  0  0  0  0  0
   -2.5157    2.5234   -1.8425 H   0  0  0  0  0  0
   -4.5429    3.2832   -0.6063 H   0  0  0  0  0  0
   -3.9567    2.5524    0.8660 H   0  0  0  0  0  0
   -3.0595   -1.0393   -2.6497 H   0  0  0  0  0  0
   -1.6890   -0.4934   -1.7067 H   0  0  0  0  0  0
   -2.2044    0.4238   -3.1118 H   0  0  0  0  0  0
   -4.5196    1.6947   -3.0449 H   0  0  0  0  0  0
   -5.5425    1.5219   -1.6238 H   0  0  0  0  0  0
   -5.2186    0.1361   -2.6381 H   0  0  0  0  0  0
   -2.2819    3.8475    2.2257 H   0  0  0  0  0  0
   -3.0430    5.3236   -1.6834 H   0  0  0  0  0  0
    0.0503    7.8895    0.7567 H   0  0  0  0  0  0
    1.3928    9.1517    2.3647 H   0  0  0  0  0  0
   -0.1188    6.6943    5.5559 H   0  0  0  0  0  0
   -1.4614    5.4358    3.9540 H   0  0  0  0  0  0
   -4.4250   -1.0931   -0.4707 H   0  0  0  0  0  0
   -4.6678    0.3583    0.4803 H   0  0  0  0  0  0
   -3.1005   -0.4381    0.4750 H   0  0  0  0  0  0
   -1.6643   -3.0771   -6.1309 H   0  0  0  0  0  0
   -1.0282   -0.5373   -6.7580 H   0  0  0  0  0  0
   -1.5968    7.0677   -0.4317 H   0  0  0  0  0  0
  1  2  1  0  0  0
  1  9  1  0  0  0
  1 10  2  0  0  0
  2  3  1  0  0  0
  2 41  1  0  0  0
  3 11  1  0  0  0
  3  4  1  0  0  0
  3 42  1  0  0  0
  4  6  2  0  0  0
  4  5  1  0  0  0
  5  7  2  0  0  0
  5  8  1  0  0  0
  8 33  1  0  0  0
  8 43  1  0  0  0
  9 15  1  0  0  0
 11 12  1  0  0  0
 11 44  1  0  0  0
 11 45  1  0  0  0
 12 13  1  0  0  0
 12 46  1  0  0  0
 12 47  1  0  0  0
 13 14  1  0  0  0
 13 48  1  0  0  0
 13 49  1  0  0  0
 14 50  1  0  0  0
 14 51  1  0  0  0
 14 52  1  0  0  0
 15 16  1  0  0  0
 15 18  1  0  0  0
 15 53  1  0  0  0
 16 17  1  0  0  0
 16 54  1  0  0  0
 16 55  1  0  0  0
 17 21  1  0  0  0
 17 24  1  0  0  0
 18 31  1  0  0  0
 18 19  1  0  0  0
 18 20  1  0  0  0
 19 56  1  0  0  0
 19 57  1  0  0  0
 19 58  1  0  0  0
 20 59  1  0  0  0
 20 60  1  0  0  0
 20 61  1  0  0  0
 21 22  2  0  0  0
 21 62  1  0  0  0
 22 23  1  0  0  0
 22 25  1  0  0  0
 23 24  2  0  0  0
 23 73  1  0  0  0
 24 63  1  0  0  0
 25 26  2  0  0  0
 25 30  1  0  0  0
 26 27  1  0  0  0
 26 64  1  0  0  0
 27 28  2  0  0  0
 27 65  1  0  0  0
 28 29  1  0  0  0
 28 32  1  0  0  0
 29 30  2  0  0  0
 29 66  1  0  0  0
 30 67  1  0  0  0
 31 68  1  0  0  0
 31 69  1  0  0  0
 31 70  1  0  0  0
 32 34  1  0  0  0
 32 35  1  0  0  0
 32 36  1  0  0  0
 33 37  1  0  0  0
 33 40  2  0  0  0
 37 38  1  0  0  0
 38 39  2  0  0  0
 38 71  1  0  0  0
 39 40  1  0  0  0
 39 72  1  0  0  0
M  CHG  1  23   1
M  END
> <chembl_id>
CHEMBL187864

> <chembl_pref_name>
None

> <i_m_ct_stereo_status>
1

> <s_m_source_file>
sdf/inactives_sanitized.sdf

> <i_m_source_file_index>
274

> <i_lp_mmshare_version>
49012

> <i_f3d_flags>
0

> <s_epik_input>
bjFbY0hdW2NIXXNjMVtOSF1DKD1PKUMoPU8pW0NASF0oW0NIMl1bQ0gyXVtDSDJdW0NIM10pW05IXUMoPU8pT1tDQEBIXShDKFtDSDNdKShbQ0gzXSlbQ0gzXSlbQ0gyXW4yW2NIXWMobltjSF0yKS1jM1tjSF1bY0hdYyhDKEYpKEYpRilbY0hdW2NIXTM=

> <s_epik_cmdline>
J2VwaWtfcHl0aG9uJywgJy1waHQnLCAnMC41JywgJy1waCcsICc3LjUnLCAnLW50JywgJy1tYScsICcyMDAnLCAnLWltYWUnLCAnPGluZmlsZS5tYWU+JywgJy1vbWFlJywgJzxvdXRmaWxlLm1hZT4n

> <r_lp_tautomer_probability>
0.99990000499975

> <r_epik_Ionization_Penalty>
  0.4122

> <r_epik_Ionization_Penalty_Charging>
  0.0000

> <r_epik_Ionization_Penalty_Neutral>
  0.4122

> <r_epik_State_Penalty>
  0.3956

> <r_epik_Charging_Adjusted_Penalty>
0.395630582849213

> <i_epik_Tot_Q>
1

> <i_epik_Tot_abs_Q>
1

> <s_epik_Chemistry_Notes>
This compound has an ester and may undergo hydrolysis at high or low pH.

> <s_lp_Force_Field>
OPLS3e

> <r_lp_Energy>
42.406461

> <b_lp_Chiralities_Consistent>
1

> <s_lp_Variant>
sdf/inactives_sanitized.sdf:274-1

$$$$
sdf/inactives_sanitized.sdf:274
                    3D
 Schrodinger Suite 2020-1.
 72 74  0  0  1  0            999 V2000
   -0.8315    1.8967   -0.7640 C   0  0  0  0  0  0
    0.2856    1.4258   -0.0854 N   0  0  0  0  0  0
    1.6416    1.9024   -0.4125 C   0  0  2  0  0  0
    2.2959    0.7586   -1.1904 C   0  0  0  0  0  0
    1.6954    0.4687   -2.6210 C   0  0  0  0  0  0
    3.2337    0.0748   -0.7712 O   0  0  0  0  0  0
    1.4410    1.3898   -3.3988 O   0  0  0  0  0  0
    1.4662   -0.8512   -2.7910 N   0  0  0  0  0  0
   -1.9067    1.1754   -0.3768 O   0  0  0  0  0  0
   -0.8528    2.8021   -1.6011 O   0  0  0  0  0  0
    2.4402    2.2842    0.8633 C   0  0  0  0  0  0
    1.7849    3.3683    1.7491 C   0  0  0  0  0  0
    1.5263    4.7102    1.0376 C   0  0  0  0  0  0
    1.0406    5.8060    1.9951 C   0  0  0  0  0  0
   -3.2015    1.3571   -0.9688 C   0  0  2  0  0  0
   -4.1698    1.9139    0.1125 C   0  0  0  0  0  0
   -3.6460    3.1286    0.7270 N   0  0  0  0  0  0
   -3.6543    0.0354   -1.6787 C   0  0  0  0  0  0
   -2.6277   -0.3407   -2.7781 C   0  0  0  0  0  0
   -5.0261    0.2381   -2.3662 C   0  0  0  0  0  0
   -3.3571    4.3228    0.1201 C   0  0  0  0  0  0
   -2.8254    5.1508    1.1061 C   0  0  0  0  0  0
   -2.8088    4.5183    2.2733 N   0  0  0  0  0  0
   -3.2902    3.3220    2.0369 C   0  0  0  0  0  0
   -2.3108    6.5472    0.9502 C   0  0  0  0  0  0
   -1.8929    6.9933   -0.3076 C   0  0  0  0  0  0
   -1.3928    8.2827   -0.4673 C   0  0  0  0  0  0
   -1.3035    9.1437    0.6315 C   0  0  0  0  0  0
   -1.7248    8.7011    1.8885 C   0  0  0  0  0  0
   -2.2245    7.4119    2.0472 C   0  0  0  0  0  0
   -3.7626   -1.1442   -0.6810 C   0  0  0  0  0  0
   -0.7590   10.5634    0.4800 C   0  0  0  0  0  0
    0.8036   -1.4243   -3.8654 C   0  0  0  0  0  0
    0.4119   10.6550    1.1107 F   0  0  0  0  0  0
   -0.5752   10.9066   -0.7964 F   0  0  0  0  0  0
   -1.6058   11.4385    1.0245 F   0  0  0  0  0  0
    0.3236   -3.0829   -3.7105 S   0  0  0  0  0  0
   -0.3755   -2.9723   -5.2983 C   0  0  0  0  0  0
   -0.1742   -1.6872   -5.7930 C   0  0  0  0  0  0
    0.4707   -0.8522   -5.0023 N   0  0  0  0  0  0
    0.1824    0.6763    0.5829 H   0  0  0  0  0  0
    1.6237    2.7884   -1.0515 H   0  0  0  0  0  0
    1.7177   -1.4725   -2.0359 H   0  0  0  0  0  0
    2.5769    1.4003    1.4897 H   0  0  0  0  0  0
    3.4438    2.6143    0.5880 H   0  0  0  0  0  0
    0.8490    2.9898    2.1634 H   0  0  0  0  0  0
    2.4347    3.5420    2.6081 H   0  0  0  0  0  0
    2.4380    5.0479    0.5432 H   0  0  0  0  0  0
    0.7815    4.5766    0.2520 H   0  0  0  0  0  0
    0.8453    6.7339    1.4569 H   0  0  0  0  0  0
    1.7838    6.0198    2.7636 H   0  0  0  0  0  0
    0.1177    5.5122    2.4957 H   0  0  0  0  0  0
   -3.1522    2.1173   -1.7512 H   0  0  0  0  0  0
   -5.1405    2.1617   -0.3164 H   0  0  0  0  0  0
   -4.3484    1.1801    0.8987 H   0  0  0  0  0  0
   -2.9463   -1.2129   -3.3507 H   0  0  0  0  0  0
   -1.6514   -0.5814   -2.3560 H   0  0  0  0  0  0
   -2.4796    0.4758   -3.4865 H   0  0  0  0  0  0
   -5.0116    1.0931   -3.0435 H   0  0  0  0  0  0
   -5.8259    0.4050   -1.6443 H   0  0  0  0  0  0
   -5.3129   -0.6353   -2.9538 H   0  0  0  0  0  0
   -3.5251    4.4656   -0.9374 H   0  0  0  0  0  0
   -3.4071    2.5236    2.7551 H   0  0  0  0  0  0
   -1.9423    6.3406   -1.1669 H   0  0  0  0  0  0
   -1.0716    8.6014   -1.4480 H   0  0  0  0  0  0
   -1.6616    9.3549    2.7464 H   0  0  0  0  0  0
   -2.5407    7.0885    3.0284 H   0  0  0  0  0  0
   -4.0305   -2.0717   -1.1892 H   0  0  0  0  0  0
   -4.5244   -0.9687    0.0786 H   0  0  0  0  0  0
   -2.8197   -1.3236   -0.1633 H   0  0  0  0  0  0
   -0.8715   -3.8119   -5.7627 H   0  0  0  0  0  0
   -0.5050   -1.3392   -6.7604 H   0  0  0  0  0  0
  1  2  1  0  0  0
  1  9  1  0  0  0
  1 10  2  0  0  0
  2  3  1  0  0  0
  2 41  1  0  0  0
  3 11  1  0  0  0
  3  4  1  0  0  0
  3 42  1  0  0  0
  4  6  2  0  0  0
  4  5  1  0  0  0
  5  7  2  0  0  0
  5  8  1  0  0  0
  8 33  1  0  0  0
  8 43  1  0  0  0
  9 15  1  0  0  0
 11 12  1  0  0  0
 11 44  1  0  0  0
 11 45  1  0  0  0
 12 13  1  0  0  0
 12 46  1  0  0  0
 12 47  1  0  0  0
 13 14  1  0  0  0
 13 48  1  0  0  0
 13 49  1  0  0  0
 14 50  1  0  0  0
 14 51  1  0  0  0
 14 52  1  0  0  0
 15 16  1  0  0  0
 15 18  1  0  0  0
 15 53  1  0  0  0
 16 17  1  0  0  0
 16 54  1  0  0  0
 16 55  1  0  0  0
 17 21  1  0  0  0
 17 24  1  0  0  0
 18 31  1  0  0  0
 18 19  1  0  0  0
 18 20  1  0  0  0
 19 56  1  0  0  0
 19 57  1  0  0  0
 19 58  1  0  0  0
 20 59  1  0  0  0
 20 60  1  0  0  0
 20 61  1  0  0  0
 21 22  2  0  0  0
 21 62  1  0  0  0
 22 23  1  0  0  0
 22 25  1  0  0  0
 23 24  2  0  0  0
 24 63  1  0  0  0
 25 26  2  0  0  0
 25 30  1  0  0  0
 26 27  1  0  0  0
 26 64  1  0  0  0
 27 28  2  0  0  0
 27 65  1  0  0  0
 28 29  1  0  0  0
 28 32  1  0  0  0
 29 30  2  0  0  0
 29 66  1  0  0  0
 30 67  1  0  0  0
 31 68  1  0  0  0
 31 69  1  0  0  0
 31 70  1  0  0  0
 32 34  1  0  0  0
 32 35  1  0  0  0
 32 36  1  0  0  0
 33 37  1  0  0  0
 33 40  2  0  0  0
 37 38  1  0  0  0
 38 39  2  0  0  0
 38 71  1  0  0  0
 39 40  1  0  0  0
 39 72  1  0  0  0
M  END
> <chembl_id>
CHEMBL187864

> <chembl_pref_name>
None

> <i_m_ct_stereo_status>
1

> <s_m_source_file>
sdf/inactives_sanitized.sdf

> <i_m_source_file_index>
274

> <i_lp_mmshare_version>
49012

> <i_f3d_flags>
0

> <s_epik_input>
bjFbY0hdW2NIXXNjMVtOSF1DKD1PKUMoPU8pW0NASF0oW0NIMl1bQ0gyXVtDSDJdW0NIM10pW05IXUMoPU8pT1tDQEBIXShDKFtDSDNdKShbQ0gzXSlbQ0gzXSlbQ0gyXW4yW2NIXWMobltjSF0yKS1jM1tjSF1bY0hdYyhDKEYpKEYpRilbY0hdW2NIXTM=

> <s_epik_cmdline>
J2VwaWtfcHl0aG9uJywgJy1waHQnLCAnMC41JywgJy1waCcsICc3LjUnLCAnLW50JywgJy1tYScsICcyMDAnLCAnLWltYWUnLCAnPGluZmlsZS5tYWU+JywgJy1vbWFlJywgJzxvdXRmaWxlLm1hZT4n

> <r_lp_tautomer_probability>
0.99990000499975

> <r_epik_Ionization_Penalty>
  0.6518

> <r_epik_Ionization_Penalty_Charging>
  0.5429

> <r_epik_Ionization_Penalty_Neutral>
  0.1089

> <r_epik_State_Penalty>
  0.6511

> <r_epik_Charging_Adjusted_Penalty>
1.19396871259801

> <i_epik_Tot_Q>
0

> <i_epik_Tot_abs_Q>
0

> <s_epik_Chemistry_Notes>
This compound has an ester and may undergo hydrolysis at high or low pH.

> <s_lp_Force_Field>
OPLS3e

> <r_lp_Energy>
39.930733

> <b_lp_Chiralities_Consistent>
1

> <s_lp_Variant>
sdf/inactives_sanitized.sdf:274-2

$$$$
sdf/inactives_sanitized.sdf:275
                    3D
 Schrodinger Suite 2020-1.
 39 41  0  0  1  0            999 V2000
    2.3851   -0.0176   -1.6824 S   0  0  0  0  0  0
    5.0084   -0.0120   -2.1335 O   0  0  0  0  0  0
   -0.5547    0.9294   -0.5526 O   0  0  0  0  0  0
    4.5296   -0.1528    0.0846 N   0  0  0  0  0  0
   -0.6090   -1.2681    0.0252 N   0  0  0  0  0  0
   -3.2681   -0.1420    1.8474 N   0  0  0  0  0  0
    6.1849   -0.0694   -1.4536 C   0  0  0  0  0  0
    5.8860   -0.1564   -0.0842 C   0  0  0  0  0  0
   -2.0537   -1.5291   -0.0414 C   0  0  0  0  0  0
    4.0648   -0.0669   -1.1464 C   0  0  0  0  0  0
    0.0235   -0.1062   -0.2248 C   0  0  0  0  0  0
    7.4898   -0.0513   -1.9561 C   0  0  0  0  0  0
    6.9343   -0.2299    0.8461 C   0  0  0  0  0  0
   -2.7282   -1.1907   -1.4065 C   0  0  0  0  0  0
   -2.3479   -3.0233    0.2696 C   0  0  0  0  0  0
    1.5449   -0.1097   -0.0713 C   0  0  0  0  0  0
   -2.7358   -0.7508    1.0185 C   0  0  0  0  0  0
    8.5176   -0.1254   -1.0121 C   0  0  0  0  0  0
    8.2465   -0.2127    0.3582 C   0  0  0  0  0  0
   -4.2369   -1.5163   -1.4517 C   0  0  0  0  0  0
   -3.8490   -3.3871    0.2493 C   0  0  0  0  0  0
   -4.5097   -2.9865   -1.0827 C   0  0  0  0  0  0
   -0.0535   -2.0265    0.3931 H   0  0  0  0  0  0
    7.6921    0.0158   -3.0148 H   0  0  0  0  0  0
    6.7387   -0.2982    1.9060 H   0  0  0  0  0  0
   -2.5823   -0.1415   -1.6627 H   0  0  0  0  0  0
   -2.2198   -1.7400   -2.2008 H   0  0  0  0  0  0
   -1.8214   -3.6502   -0.4527 H   0  0  0  0  0  0
   -1.9179   -3.2962    1.2352 H   0  0  0  0  0  0
    1.8773   -1.0033    0.4601 H   0  0  0  0  0  0
    1.8370    0.7503    0.5329 H   0  0  0  0  0  0
    9.5446   -0.1151   -1.3471 H   0  0  0  0  0  0
    9.0702   -0.2686    1.0551 H   0  0  0  0  0  0
   -4.7782   -0.8602   -0.7686 H   0  0  0  0  0  0
   -4.6315   -1.3059   -2.4463 H   0  0  0  0  0  0
   -3.9731   -4.4579    0.4159 H   0  0  0  0  0  0
   -4.3624   -2.8937    1.0755 H   0  0  0  0  0  0
   -5.5847   -3.1640   -1.0325 H   0  0  0  0  0  0
   -4.1336   -3.6317   -1.8783 H   0  0  0  0  0  0
  1 10  1  0  0  0
  1 16  1  0  0  0
  2  7  1  0  0  0
  2 10  1  0  0  0
  3 11  2  0  0  0
  4  8  1  0  0  0
  4 10  2  0  0  0
  5  9  1  0  0  0
  5 11  1  0  0  0
  5 23  1  0  0  0
  6 17  3  0  0  0
  7  8  2  0  0  0
  7 12  1  0  0  0
  8 13  1  0  0  0
  9 14  1  0  0  0
  9 15  1  0  0  0
  9 17  1  0  0  0
 11 16  1  0  0  0
 12 18  2  0  0  0
 12 24  1  0  0  0
 13 19  2  0  0  0
 13 25  1  0  0  0
 14 20  1  0  0  0
 14 26  1  0  0  0
 14 27  1  0  0  0
 15 21  1  0  0  0
 15 28  1  0  0  0
 15 29  1  0  0  0
 16 30  1  0  0  0
 16 31  1  0  0  0
 18 19  1  0  0  0
 18 32  1  0  0  0
 19 33  1  0  0  0
 20 22  1  0  0  0
 20 34  1  0  0  0
 20 35  1  0  0  0
 21 22  1  0  0  0
 21 36  1  0  0  0
 21 37  1  0  0  0
 22 38  1  0  0  0
 22 39  1  0  0  0
M  END
> <chembl_id>
CHEMBL1869247

> <chembl_pref_name>
None

> <s_m_source_file>
sdf/inactives_sanitized.sdf

> <i_m_source_file_index>
275

> <i_lp_mmshare_version>
49012

> <i_m_ct_stereo_status>
1

> <i_f3d_flags>
0

> <s_epik_input>
W2NIXTFbY0hdW2NIXVtjSF1jKGMxMiluYyhvMilTW0NIMl1DKD1PKVtOSF1DMyhDI04pW0NIMl1bQ0gyXVtDSDJdW0NIMl1bQ0gyXTM=

> <s_epik_cmdline>
J2VwaWtfcHl0aG9uJywgJy1waHQnLCAnMC41JywgJy1waCcsICc3LjUnLCAnLW50JywgJy1tYScsICcyMDAnLCAnLWltYWUnLCAnPGluZmlsZS5tYWU+JywgJy1vbWFlJywgJzxvdXRmaWxlLm1hZT4n

> <r_lp_tautomer_probability>
1

> <r_epik_Ionization_Penalty>
  0.0000

> <r_epik_Ionization_Penalty_Charging>
  0.0000

> <r_epik_Ionization_Penalty_Neutral>
  0.0000

> <r_epik_State_Penalty>
 -0.0000

> <r_epik_Charging_Adjusted_Penalty>
0

> <i_epik_Tot_Q>
0

> <i_epik_Tot_abs_Q>
0

> <s_lp_Force_Field>
OPLS3e

> <r_lp_Energy>
23.383861

> <b_lp_Chiralities_Consistent>
1

> <s_lp_Variant>
sdf/inactives_sanitized.sdf:275-1

$$$$
sdf/inactives_sanitized.sdf:276
                    3D
 Schrodinger Suite 2020-1.
 56 59  0  0  1  0            999 V2000
   -0.0279   -0.0707    0.1225 C   0  0  1  0  0  0
   -0.4923   -0.8454    1.2847 C   0  0  0  0  0  0
   -0.8575   -1.4538    2.1987 N   0  0  0  0  0  0
   -0.5932    1.2806    0.1759 N   0  0  0  0  0  0
    1.5133   -0.0726    0.0092 C   0  0  0  0  0  0
    2.0404    0.6537   -1.2222 C   0  0  0  0  0  0
    2.0566    0.0071   -2.4580 C   0  0  0  0  0  0
    2.5143    0.6797   -3.5876 C   0  0  0  0  0  0
    2.9586    2.0048   -3.4989 C   0  0  0  0  0  0
    2.9366    2.6433   -2.2528 C   0  0  0  0  0  0
    2.4830    1.9734   -1.1205 C   0  0  0  0  0  0
    3.4466    2.7234   -4.7091 C   0  0  0  0  0  0
    4.2904    2.0769   -5.6365 C   0  0  0  0  0  0
    4.7627    2.7375   -6.7765 C   0  0  0  0  0  0
    3.0750    4.0607   -4.9452 C   0  0  0  0  0  0
   -1.1378    1.9380   -0.8641 C   0  0  0  0  0  0
   -1.5689    3.3929   -0.6090 C   0  0  2  0  0  0
   -1.2609    1.4401   -1.9845 O   0  0  0  0  0  0
   -2.9784    3.7065   -1.1986 C   0  0  0  0  0  0
   -3.0233    5.0180   -2.0043 N   0  3  0  0  0  0
   -0.5428    4.2124   -1.1746 O   0  0  0  0  0  0
   -2.7900    6.3396   -1.2523 C   0  0  0  0  0  0
   -0.3909    5.5302   -0.6387 C   0  0  0  0  0  0
   -1.6778    6.2600   -0.1928 C   0  0  0  0  0  0
    3.5530    4.7050   -6.0850 C   0  0  0  0  0  0
    4.3711    4.0573   -6.9671 C   0  0  0  0  0  0
    4.7077    4.8845   -7.9934 O   0  0  0  0  0  0
    4.1068    6.0925   -7.7911 C   0  0  0  0  0  0
    3.3866    5.9696   -6.5982 N   0  0  0  0  0  0
    2.5923    7.0554   -6.0354 C   0  0  0  0  0  0
    4.2327    7.0421   -8.5630 O   0  0  0  0  0  0
   -0.4350   -0.6157   -0.7321 H   0  0  0  0  0  0
   -0.4245    1.7945    1.0283 H   0  0  0  0  0  0
    1.9545    0.3681    0.9052 H   0  0  0  0  0  0
    1.8818   -1.0998   -0.0069 H   0  0  0  0  0  0
    1.7086   -1.0117   -2.5472 H   0  0  0  0  0  0
    2.5135    0.1666   -4.5385 H   0  0  0  0  0  0
    3.2774    3.6640   -2.1556 H   0  0  0  0  0  0
    2.4674    2.4848   -0.1691 H   0  0  0  0  0  0
    4.5921    1.0526   -5.4711 H   0  0  0  0  0  0
    5.4102    2.2303   -7.4761 H   0  0  0  0  0  0
    2.4246    4.5772   -4.2544 H   0  0  0  0  0  0
   -1.5950    3.5499    0.4723 H   0  0  0  0  0  0
   -3.3287    2.9793   -1.9333 H   0  0  0  0  0  0
   -3.7453    3.8173   -0.4307 H   0  0  0  0  0  0
   -2.3157    4.9444   -2.7222 H   0  0  0  0  0  0
   -2.5599    7.0496   -2.0473 H   0  0  0  0  0  0
   -3.7560    6.5947   -0.8148 H   0  0  0  0  0  0
    0.2822    5.4593    0.2167 H   0  0  0  0  0  0
    0.1406    6.1275   -1.3803 H   0  0  0  0  0  0
   -1.4162    7.2736    0.1133 H   0  0  0  0  0  0
   -2.0758    5.7915    0.7078 H   0  0  0  0  0  0
    2.6478    7.9617   -6.6403 H   0  0  0  0  0  0
    2.9449    7.2970   -5.0324 H   0  0  0  0  0  0
    1.5456    6.7579   -5.9688 H   0  0  0  0  0  0
   -3.9150    5.0778   -2.4757 H   0  0  0  0  0  0
  1  2  1  0  0  0
  1  4  1  0  0  0
  1  5  1  0  0  0
  1 32  1  0  0  0
  2  3  3  0  0  0
  4 16  1  0  0  0
  4 33  1  0  0  0
  5  6  1  0  0  0
  5 34  1  0  0  0
  5 35  1  0  0  0
  6  7  2  0  0  0
  6 11  1  0  0  0
  7  8  1  0  0  0
  7 36  1  0  0  0
  8  9  2  0  0  0
  8 37  1  0  0  0
  9 10  1  0  0  0
  9 12  1  0  0  0
 10 11  2  0  0  0
 10 38  1  0  0  0
 11 39  1  0  0  0
 12 13  2  0  0  0
 12 15  1  0  0  0
 13 14  1  0  0  0
 13 40  1  0  0  0
 14 26  2  0  0  0
 14 41  1  0  0  0
 15 25  2  0  0  0
 15 42  1  0  0  0
 16 17  1  0  0  0
 16 18  2  0  0  0
 17 19  1  0  0  0
 17 21  1  0  0  0
 17 43  1  0  0  0
 19 20  1  0  0  0
 19 44  1  0  0  0
 19 45  1  0  0  0
 20 22  1  0  0  0
 20 46  1  0  0  0
 20 56  1  0  0  0
 21 23  1  0  0  0
 22 24  1  0  0  0
 22 47  1  0  0  0
 22 48  1  0  0  0
 23 24  1  0  0  0
 23 49  1  0  0  0
 23 50  1  0  0  0
 24 51  1  0  0  0
 24 52  1  0  0  0
 25 26  1  0  0  0
 25 29  1  0  0  0
 26 27  1  0  0  0
 27 28  1  0  0  0
 28 29  1  0  0  0
 28 31  2  0  0  0
 29 30  1  0  0  0
 30 53  1  0  0  0
 30 54  1  0  0  0
 30 55  1  0  0  0
M  CHG  1  20   1
M  END
> <chembl_id>
CHEMBL3900409

> <chembl_pref_name>
AZD-7986

> <i_m_ct_stereo_status>
1

> <s_m_source_file>
sdf/inactives_sanitized.sdf

> <i_m_source_file_index>
276

> <i_lp_mmshare_version>
49012

> <i_f3d_flags>
0

> <s_epik_input>
TzFbQ0gyXVtDSDJdW0NIMl1bTkhdW0NIMl1bQ0BIXTFDKD1PKVtOSF1bQ0BIXShDI04pW0NIMl1jMltjSF1bY0hdYyhbY0hdW2NIXTIpLWMoW2NIXTMpW2NIXVtjSF1jKGMzNClvYyg9TyluNFtDSDNd

> <s_epik_cmdline>
J2VwaWtfcHl0aG9uJywgJy1waHQnLCAnMC41JywgJy1waCcsICc3LjUnLCAnLW50JywgJy1tYScsICcyMDAnLCAnLWltYWUnLCAnPGluZmlsZS5tYWU+JywgJy1vbWFlJywgJzxvdXRmaWxlLm1hZT4n

> <r_epik_Ionization_Penalty>
  0.0529

> <r_epik_Ionization_Penalty_Charging>
  0.0528

> <r_epik_Ionization_Penalty_Neutral>
  0.0001

> <r_epik_State_Penalty>
  0.0454

> <r_epik_Charging_Adjusted_Penalty>
0.0981908804983918

> <i_epik_Tot_Q>
1

> <i_epik_Tot_abs_Q>
1

> <s_lp_Force_Field>
OPLS3e

> <r_lp_Energy>
41.976493

> <b_lp_Chiralities_Consistent>
1

> <s_lp_Variant>
sdf/inactives_sanitized.sdf:276-1

$$$$
sdf/inactives_sanitized.sdf:277
                    3D
 Schrodinger Suite 2020-1.
 80 83  0  0  1  0            999 V2000
   -6.7942   -2.6503   -0.4757 C   0  0  0  0  0  0
   -5.4220   -3.2308   -0.1077 C   0  0  0  0  0  0
   -4.3751   -2.1409    0.1989 C   0  0  0  0  0  0
   -2.9446   -2.6652    0.4667 C   0  0  2  0  0  0
   -2.8621   -3.5902    1.7014 C   0  0  0  0  0  0
   -2.0216   -1.5339    0.5855 N   0  0  0  0  0  0
   -0.6831   -1.5982    0.4450 C   0  0  0  0  0  0
   -0.0326   -2.6148    0.1965 O   0  0  0  0  0  0
    0.0161   -0.1853    0.6345 C   0  0  0  0  0  0
   -0.6723    0.8347    0.7693 O   0  0  0  0  0  0
    1.5483   -0.2110    0.6230 C   0  0  2  0  0  0
    2.1129   -0.8140    1.9376 C   0  0  0  0  0  0
    3.6482   -0.8962    1.9730 C   0  0  0  0  0  0
    1.9852    1.1794    0.4265 N   0  0  0  0  0  0
    2.8799    1.6137   -0.4815 C   0  0  0  0  0  0
    3.4375    0.8681   -1.2860 O   0  0  0  0  0  0
    3.1727    3.1308   -0.5152 C   0  0  2  0  0  0
    4.0484    3.5893    0.6675 C   0  0  0  0  0  0
    3.4543    4.9273    1.0972 C   0  0  2  0  0  0
    1.9585    4.7563    0.8064 C   0  0  0  0  0  0
    1.9569    3.9696   -0.4298 N   0  0  0  0  0  0
    1.1162    4.1829   -1.4759 C   0  0  0  0  0  0
    1.2847    3.6392   -2.5696 O   0  0  0  0  0  0
   -0.1267    5.0898   -1.2890 C   0  0  0  0  0  0
   -1.4206    4.4555   -1.7783 C   0  0  0  0  0  0
   -1.1293    4.4976   -0.3006 C   0  0  0  0  0  0
    0.0797    6.6007   -1.4192 C   0  0  0  0  0  0
   -0.2171    7.4647   -0.3585 C   0  0  0  0  0  0
    0.0009    8.8334   -0.4889 C   0  0  0  0  0  0
    0.5122    9.3420   -1.6808 C   0  0  0  0  0  0
    0.7912   11.0379   -1.8374 Cl  0  0  0  0  0  0
    0.8026    8.4915   -2.7456 C   0  0  0  0  0  0
    0.5857    7.1226   -2.6144 C   0  0  0  0  0  0
    4.2149    6.3560    0.0680 S   0  0  0  0  0  0
    5.3217    5.8342   -0.7434 O   0  0  0  0  0  0
    3.1469    7.1213   -0.5830 O   0  0  0  0  0  0
    4.9305    7.4388    1.3180 C   0  0  0  0  0  0
    6.3234    7.5735    1.3798 C   0  0  0  0  0  0
    6.9141    8.3989    2.3357 C   0  0  0  0  0  0
    6.1183    9.0962    3.2415 C   0  0  0  0  0  0
    4.7318    8.9664    3.1920 C   0  0  0  0  0  0
    4.1306    8.1417    2.2385 C   0  0  0  0  0  0
    2.4044    8.0212    2.2485 Cl  0  0  0  0  0  0
   -7.5107   -3.4460   -0.6818 H   0  0  0  0  0  0
   -6.7334   -2.0220   -1.3648 H   0  0  0  0  0  0
   -7.1973   -2.0439    0.3362 H   0  0  0  0  0  0
   -5.5449   -3.8883    0.7528 H   0  0  0  0  0  0
   -5.0685   -3.8582   -0.9271 H   0  0  0  0  0  0
   -4.3405   -1.4578   -0.6522 H   0  0  0  0  0  0
   -4.7104   -1.5384    1.0452 H   0  0  0  0  0  0
   -2.6473   -3.2426   -0.4121 H   0  0  0  0  0  0
   -3.5171   -4.4545    1.5969 H   0  0  0  0  0  0
   -3.1738   -3.0710    2.6084 H   0  0  0  0  0  0
   -1.8544   -3.9788    1.8521 H   0  0  0  0  0  0
   -2.4405   -0.6347    0.7748 H   0  0  0  0  0  0
    1.8831   -0.8242   -0.2174 H   0  0  0  0  0  0
    1.7822   -0.2219    2.7931 H   0  0  0  0  0  0
    1.7215   -1.8204    2.0943 H   0  0  0  0  0  0
    3.9910   -1.3650    2.8958 H   0  0  0  0  0  0
    4.1058    0.0920    1.9187 H   0  0  0  0  0  0
    4.0302   -1.4876    1.1403 H   0  0  0  0  0  0
    1.5919    1.8482    1.0727 H   0  0  0  0  0  0
    3.6808    3.2920   -1.4683 H   0  0  0  0  0  0
    3.9665    2.9194    1.5267 H   0  0  0  0  0  0
    5.1127    3.6195    0.4342 H   0  0  0  0  0  0
    3.6621    5.1791    2.1370 H   0  0  0  0  0  0
    1.5477    4.1204    1.5918 H   0  0  0  0  0  0
    1.4341    5.7093    0.7839 H   0  0  0  0  0  0
   -2.1939    5.1096   -2.1821 H   0  0  0  0  0  0
   -1.4009    3.4918   -2.2901 H   0  0  0  0  0  0
   -1.7333    5.1566    0.3222 H   0  0  0  0  0  0
   -0.9008    3.5631    0.2144 H   0  0  0  0  0  0
   -0.5984    7.0850    0.5770 H   0  0  0  0  0  0
   -0.2194    9.4948    0.3361 H   0  0  0  0  0  0
    1.1998    8.8878   -3.6685 H   0  0  0  0  0  0
    0.8184    6.4661   -3.4403 H   0  0  0  0  0  0
    6.9613    7.0424    0.6890 H   0  0  0  0  0  0
    7.9890    8.4979    2.3734 H   0  0  0  0  0  0
    6.5752    9.7363    3.9818 H   0  0  0  0  0  0
    4.1222    9.5092    3.8997 H   0  0  0  0  0  0
  1  2  1  0  0  0
  1 44  1  0  0  0
  1 45  1  0  0  0
  1 46  1  0  0  0
  2  3  1  0  0  0
  2 47  1  0  0  0
  2 48  1  0  0  0
  3  4  1  0  0  0
  3 49  1  0  0  0
  3 50  1  0  0  0
  4  5  1  0  0  0
  4  6  1  0  0  0
  4 51  1  0  0  0
  5 52  1  0  0  0
  5 53  1  0  0  0
  5 54  1  0  0  0
  6  7  1  0  0  0
  6 55  1  0  0  0
  7  8  2  0  0  0
  7  9  1  0  0  0
  9 10  2  0  0  0
  9 11  1  0  0  0
 11 12  1  0  0  0
 11 14  1  0  0  0
 11 56  1  0  0  0
 12 13  1  0  0  0
 12 57  1  0  0  0
 12 58  1  0  0  0
 13 59  1  0  0  0
 13 60  1  0  0  0
 13 61  1  0  0  0
 14 15  1  0  0  0
 14 62  1  0  0  0
 15 16  2  0  0  0
 15 17  1  0  0  0
 17 18  1  0  0  0
 17 21  1  0  0  0
 17 63  1  0  0  0
 18 19  1  0  0  0
 18 64  1  0  0  0
 18 65  1  0  0  0
 19 20  1  0  0  0
 19 34  1  0  0  0
 19 66  1  0  0  0
 20 21  1  0  0  0
 20 67  1  0  0  0
 20 68  1  0  0  0
 21 22  1  0  0  0
 22 23  2  0  0  0
 22 24  1  0  0  0
 24 25  1  0  0  0
 24 26  1  0  0  0
 24 27  1  0  0  0
 25 26  1  0  0  0
 25 69  1  0  0  0
 25 70  1  0  0  0
 26 71  1  0  0  0
 26 72  1  0  0  0
 27 28  2  0  0  0
 27 33  1  0  0  0
 28 29  1  0  0  0
 28 73  1  0  0  0
 29 30  2  0  0  0
 29 74  1  0  0  0
 30 31  1  0  0  0
 30 32  1  0  0  0
 32 33  2  0  0  0
 32 75  1  0  0  0
 33 76  1  0  0  0
 34 35  2  0  0  0
 34 36  2  0  0  0
 34 37  1  0  0  0
 37 38  2  0  0  0
 37 42  1  0  0  0
 38 39  1  0  0  0
 38 77  1  0  0  0
 39 40  2  0  0  0
 39 78  1  0  0  0
 40 41  1  0  0  0
 40 79  1  0  0  0
 41 42  2  0  0  0
 41 80  1  0  0  0
 42 43  1  0  0  0
M  END
> <chembl_id>
CHEMBL3649397

> <chembl_pref_name>
None

> <i_m_ct_stereo_status>
1

> <s_m_source_file>
sdf/inactives_sanitized.sdf

> <i_m_source_file_index>
277

> <i_lp_mmshare_version>
49012

> <i_f3d_flags>
0

> <s_epik_input>
W0NIM11bQ0gyXVtDSDJdW0NASF0oW0NIM10pW05IXUMoPU8pQyg9TylbQ0BIXShbQ0gyXVtDSDNdKVtOSF1DKD1PKVtDQEBIXTFbQ0gyXVtDQEBIXShTKD1PKSg9TyljMltjSF1bY0hdW2NIXVtjSF1jMkNsKVtDSDJdTjFDKD1PKUMzKFtDSDJdW0NIMl0zKWM0W2NIXVtjSF1jKENsKVtjSF1bY0hdNA==

> <s_epik_cmdline>
J2VwaWtfcHl0aG9uJywgJy1waHQnLCAnMC41JywgJy1waCcsICc3LjUnLCAnLW50JywgJy1tYScsICcyMDAnLCAnLWltYWUnLCAnPGluZmlsZS5tYWU+JywgJy1vbWFlJywgJzxvdXRmaWxlLm1hZT4n

> <r_lp_tautomer_probability>
1

> <r_epik_Ionization_Penalty>
  0.0000

> <r_epik_Ionization_Penalty_Charging>
  0.0000

> <r_epik_Ionization_Penalty_Neutral>
  0.0000

> <r_epik_State_Penalty>
 -0.0000

> <r_epik_Charging_Adjusted_Penalty>
0

> <i_epik_Tot_Q>
0

> <i_epik_Tot_abs_Q>
0

> <s_lp_Force_Field>
OPLS3e

> <r_lp_Energy>
57.605403

> <b_lp_Chiralities_Consistent>
1

> <s_lp_Variant>
sdf/inactives_sanitized.sdf:277-1

$$$$
sdf/inactives_sanitized.sdf:278
                    3D
 Schrodinger Suite 2020-1.
 38 40  0  0  1  0            999 V2000
   -0.7301    1.6245    2.5360 C   0  0  0  0  0  0
   -0.2506    2.3785    1.2599 C   0  0  0  0  0  0
   -0.5711    1.5046    0.0150 N   0  3  1  0  0  0
    0.0815    0.0843    0.1506 C   0  0  2  0  0  0
   -0.4223   -0.6094    1.4439 C   0  0  0  0  0  0
   -1.4150    0.2444    2.2630 C   0  0  2  0  0  0
   -2.1164    1.3122   -0.0252 C   0  0  0  0  0  0
   -2.5799    0.6475    1.3043 C   0  0  0  0  0  0
   -0.1512    2.2435   -1.2798 C   0  0  0  0  0  0
   -0.0597   -1.7289    1.8006 O   0  0  0  0  0  0
    1.6345    0.1444    0.1142 C   0  0  0  0  0  0
    2.1453   -1.1732   -0.0783 O   0  0  0  0  0  0
    3.5108   -1.3835   -0.0747 C   0  0  0  0  0  0
    3.9348   -2.7040   -0.2362 C   0  0  0  0  0  0
    5.2917   -3.0152   -0.2454 C   0  0  0  0  0  0
    6.2323   -2.0001   -0.0938 C   0  0  0  0  0  0
    5.8267   -0.6778    0.0666 C   0  0  0  0  0  0
    4.4691   -0.3673    0.0765 C   0  0  0  0  0  0
    0.1217    1.4799    3.2031 H   0  0  0  0  0  0
   -1.4125    2.2681    3.0939 H   0  0  0  0  0  0
   -0.7706    3.3290    1.1269 H   0  0  0  0  0  0
    0.8236    2.5662    1.2658 H   0  0  0  0  0  0
   -0.2910   -0.4720   -0.7104 H   0  0  0  0  0  0
   -1.7476   -0.2646    3.1686 H   0  0  0  0  0  0
   -2.5751    2.2926   -0.1659 H   0  0  0  0  0  0
   -2.3370    0.6900   -0.8948 H   0  0  0  0  0  0
   -3.2688    1.3184    1.8207 H   0  0  0  0  0  0
   -3.1765   -0.2358    1.0696 H   0  0  0  0  0  0
   -0.3039    1.5602   -2.1165 H   0  0  0  0  0  0
    0.8932    2.5411   -1.1926 H   0  0  0  0  0  0
   -0.7772    3.1315   -1.3802 H   0  0  0  0  0  0
    1.9911    0.7509   -0.7167 H   0  0  0  0  0  0
    2.0285    0.5768    1.0364 H   0  0  0  0  0  0
    3.2071   -3.4936   -0.3541 H   0  0  0  0  0  0
    5.6125   -4.0390   -0.3696 H   0  0  0  0  0  0
    7.2853   -2.2404   -0.1010 H   0  0  0  0  0  0
    6.5628    0.1041    0.1826 H   0  0  0  0  0  0
    4.1814    0.6654    0.2010 H   0  0  0  0  0  0
  1  2  1  0  0  0
  1  6  1  0  0  0
  1 19  1  0  0  0
  1 20  1  0  0  0
  2  3  1  0  0  0
  2 21  1  0  0  0
  2 22  1  0  0  0
  3  4  1  0  0  0
  3  7  1  0  0  0
  3  9  1  0  0  0
  4  5  1  0  0  0
  4 11  1  0  0  0
  4 23  1  0  0  0
  5  6  1  0  0  0
  5 10  2  0  0  0
  6  8  1  0  0  0
  6 24  1  0  0  0
  7  8  1  0  0  0
  7 25  1  0  0  0
  7 26  1  0  0  0
  8 27  1  0  0  0
  8 28  1  0  0  0
  9 29  1  0  0  0
  9 30  1  0  0  0
  9 31  1  0  0  0
 11 12  1  0  0  0
 11 32  1  0  0  0
 11 33  1  0  0  0
 12 13  1  0  0  0
 13 14  2  0  0  0
 13 18  1  0  0  0
 14 15  1  0  0  0
 14 34  1  0  0  0
 15 16  2  0  0  0
 15 35  1  0  0  0
 16 17  1  0  0  0
 16 36  1  0  0  0
 17 18  2  0  0  0
 17 37  1  0  0  0
 18 38  1  0  0  0
M  CHG  1   3   1
M  END
> <chembl_id>
CHEMBL2316308

> <chembl_pref_name>
None

> <i_m_ct_stereo_status>
1

> <s_m_source_file>
sdf/inactives_sanitized.sdf

> <i_m_source_file_index>
278

> <i_lp_mmshare_version>
49012

> <i_f3d_flags>
0

> <s_epik_input>
W0NIM11bTkArXTEyW0NIMl1bQ0gyXVtDQEBIXShbQ0gyXVtDSDJdMilDKD1PKVtDQEBIXTFbQ0gyXU9jM1tjSF1bY0hdW2NIXVtjSF1bY0hdMw==

> <s_epik_cmdline>
J2VwaWtfcHl0aG9uJywgJy1waHQnLCAnMC41JywgJy1waCcsICc3LjUnLCAnLW50JywgJy1tYScsICcyMDAnLCAnLWltYWUnLCAnPGluZmlsZS5tYWU+JywgJy1vbWFlJywgJzxvdXRmaWxlLm1hZT4n

> <r_lp_tautomer_probability>
1

> <r_epik_Ionization_Penalty>
  0.0000

> <r_epik_Ionization_Penalty_Charging>
  0.0000

> <r_epik_Ionization_Penalty_Neutral>
  0.0000

> <r_epik_State_Penalty>
 -0.0000

> <r_epik_Charging_Adjusted_Penalty>
0

> <i_epik_Tot_Q>
1

> <i_epik_Tot_abs_Q>
1

> <s_lp_Force_Field>
OPLS3e

> <r_lp_Energy>
44.772839

> <b_lp_Chiralities_Consistent>
1

> <s_lp_Variant>
sdf/inactives_sanitized.sdf:278-1

$$$$
sdf/inactives_sanitized.sdf:279
                    3D
 Schrodinger Suite 2020-1.
 36 37  0  0  1  0            999 V2000
    4.5828    2.5244    1.2538 S   0  0  0  0  0  0
    3.7303    3.1042    2.2979 O   0  0  0  0  0  0
   -0.5404    1.1231    0.2483 N   0  0  0  0  0  0
    0.1087   -0.0713    0.1140 C   0  0  0  0  0  0
   -0.6133   -1.2759    0.0367 C   0  0  0  0  0  0
   -2.0110   -1.2031    0.0906 C   0  0  0  0  0  0
   -2.6740   -0.0220    0.2160 N   0  0  0  0  0  0
   -1.8961    1.0858    0.2900 C   0  0  0  0  0  0
   -2.5808    2.3596    0.4258 C   0  0  0  0  0  0
   -3.1261    3.3747    0.5339 N   0  0  0  0  0  0
    1.6071   -0.0218    0.0761 C   0  0  0  0  0  0
   -2.8740   -2.4549    0.0119 C   0  0  0  0  0  0
   -3.5824   -2.7881    1.3388 C   0  0  0  0  0  0
   -4.4592   -4.0442    1.2465 C   0  0  0  0  0  0
    2.3180    1.0692    0.6072 C   0  0  0  0  0  0
    3.7143    1.1155    0.5706 C   0  0  0  0  0  0
    4.4269    0.0649   -0.0085 C   0  0  0  0  0  0
    3.7437   -1.0242   -0.5423 C   0  0  0  0  0  0
    2.3505   -1.0654   -0.4993 C   0  0  0  0  0  0
    4.6563    3.7268   -0.1966 C   0  0  0  0  0  0
    5.9483    2.0910    1.5701 O   0  0  0  0  0  0
   -0.1205   -2.2329   -0.0491 H   0  0  0  0  0  0
   -3.6095   -2.3188   -0.7830 H   0  0  0  0  0  0
   -2.2584   -3.3017   -0.2963 H   0  0  0  0  0  0
   -2.8390   -2.9278    2.1251 H   0  0  0  0  0  0
   -4.2037   -1.9473    1.6508 H   0  0  0  0  0  0
   -4.9368   -4.2562    2.2035 H   0  0  0  0  0  0
   -3.8711   -4.9197    0.9694 H   0  0  0  0  0  0
   -5.2482   -3.9212    0.5038 H   0  0  0  0  0  0
    1.7844    1.8928    1.0592 H   0  0  0  0  0  0
    5.5060    0.0884   -0.0497 H   0  0  0  0  0  0
    4.2939   -1.8368   -0.9934 H   0  0  0  0  0  0
    1.8563   -1.9202   -0.9357 H   0  0  0  0  0  0
    5.1759    4.6301    0.1214 H   0  0  0  0  0  0
    3.6406    3.9715   -0.5064 H   0  0  0  0  0  0
    5.1955    3.2575   -1.0190 H   0  0  0  0  0  0
  1  2  2  0  0  0
  1 16  1  0  0  0
  1 20  1  0  0  0
  1 21  2  0  0  0
  3  4  2  0  0  0
  3  8  1  0  0  0
  4 11  1  0  0  0
  4  5  1  0  0  0
  5  6  2  0  0  0
  5 22  1  0  0  0
  6 12  1  0  0  0
  6  7  1  0  0  0
  7  8  2  0  0  0
  8  9  1  0  0  0
  9 10  3  0  0  0
 11 15  2  0  0  0
 11 19  1  0  0  0
 12 13  1  0  0  0
 12 23  1  0  0  0
 12 24  1  0  0  0
 13 14  1  0  0  0
 13 25  1  0  0  0
 13 26  1  0  0  0
 14 27  1  0  0  0
 14 28  1  0  0  0
 14 29  1  0  0  0
 15 16  1  0  0  0
 15 30  1  0  0  0
 16 17  2  0  0  0
 17 18  1  0  0  0
 17 31  1  0  0  0
 18 19  2  0  0  0
 18 32  1  0  0  0
 19 33  1  0  0  0
 20 34  1  0  0  0
 20 35  1  0  0  0
 20 36  1  0  0  0
M  END
> <chembl_id>
CHEMBL1082858

> <chembl_pref_name>
None

> <s_m_source_file>
sdf/inactives_sanitized.sdf

> <i_m_source_file_index>
279

> <i_lp_mmshare_version>
49012

> <i_m_ct_stereo_status>
1

> <i_f3d_flags>
0

> <s_epik_input>
W2NIXTFbY0hdW2NIXWMoUyg9TykoPU8pW0NIM10pW2NIXWMxLWMybmMoQyNOKW5jKFtjSF0yKVtDSDJdW0NIMl1bQ0gzXQ==

> <s_epik_cmdline>
J2VwaWtfcHl0aG9uJywgJy1waHQnLCAnMC41JywgJy1waCcsICc3LjUnLCAnLW50JywgJy1tYScsICcyMDAnLCAnLWltYWUnLCAnPGluZmlsZS5tYWU+JywgJy1vbWFlJywgJzxvdXRmaWxlLm1hZT4n

> <r_lp_tautomer_probability>
1

> <r_epik_Ionization_Penalty>
  0.0000

> <r_epik_Ionization_Penalty_Charging>
  0.0000

> <r_epik_Ionization_Penalty_Neutral>
  0.0000

> <r_epik_State_Penalty>
 -0.0000

> <r_epik_Charging_Adjusted_Penalty>
0

> <i_epik_Tot_Q>
0

> <i_epik_Tot_abs_Q>
0

> <s_lp_Force_Field>
OPLS3e

> <r_lp_Energy>
19.440357

> <b_lp_Chiralities_Consistent>
1

> <s_lp_Variant>
sdf/inactives_sanitized.sdf:279-1

$$$$
sdf/inactives_sanitized.sdf:280
                    3D
 Schrodinger Suite 2020-1.
 44 47  0  0  1  0            999 V2000
   -0.7240    1.2005    0.0639 N   0  0  0  0  0  0
   -0.0845   -0.0018    0.0053 C   0  0  0  0  0  0
   -0.7651   -1.2298   -0.0362 C   0  0  0  0  0  0
   -2.0793    1.2474    0.0944 C   0  0  0  0  0  0
   -3.1666   -2.1118   -0.0307 N   0  0  0  0  0  0
   -4.3536   -1.4146    0.0205 C   0  0  0  0  0  0
   -4.2115   -0.1158    0.0788 N   0  0  0  0  0  0
   -2.8523    0.0744    0.0611 C   0  0  0  0  0  0
   -2.1632   -1.1638   -0.0063 C   0  0  0  0  0  0
   -2.6544    2.5826    0.1612 C   0  0  0  0  0  0
   -3.1122    3.6441    0.2145 N   0  0  0  0  0  0
    1.4085    0.0594   -0.0252 C   0  0  0  0  0  0
    2.1791   -0.9190    0.6159 C   0  0  0  0  0  0
    3.5806   -0.8820    0.6022 C   0  0  0  0  0  0
    4.2403    0.1591   -0.0735 C   0  0  0  0  0  0
    3.4726    1.1413   -0.7191 C   0  0  0  0  0  0
    2.0817    1.0903   -0.6921 C   0  0  0  0  0  0
    4.3863   -1.9703    1.3211 C   0  0  0  0  0  0
    5.1695   -2.6025    0.4463 F   0  0  0  0  0  0
    5.1550   -1.4163    2.2595 F   0  0  0  0  0  0
    3.6115   -2.8829    1.9116 F   0  0  0  0  0  0
   -3.0098   -3.5537   -0.1096 C   0  0  0  0  0  0
    5.6243    0.1590   -0.0631 O   0  0  0  0  0  0
    6.3388    1.1774   -0.7570 C   0  0  0  0  0  0
    7.8281    0.9352   -0.5872 C   0  0  0  0  0  0
    8.5523    0.2405   -1.5629 C   0  0  0  0  0  0
    9.9187    0.0343   -1.3619 C   0  0  0  0  0  0
   10.5782    0.4777   -0.2610 N   0  0  0  0  0  0
    9.8619    1.1484    0.6773 C   0  0  0  0  0  0
    8.4934    1.3965    0.5544 C   0  0  0  0  0  0
   -0.2424   -2.1733   -0.0952 H   0  0  0  0  0  0
   -5.2929   -1.9487    0.0105 H   0  0  0  0  0  0
    1.6755   -1.7163    1.1425 H   0  0  0  0  0  0
    3.9370    1.9578   -1.2505 H   0  0  0  0  0  0
    1.5259    1.8629   -1.2035 H   0  0  0  0  0  0
   -2.5021   -3.8094   -1.0401 H   0  0  0  0  0  0
   -3.9840   -4.0437   -0.0833 H   0  0  0  0  0  0
   -2.4093   -3.8978    0.7330 H   0  0  0  0  0  0
    6.0849    1.1782   -1.8190 H   0  0  0  0  0  0
    6.0897    2.1661   -0.3664 H   0  0  0  0  0  0
    8.0697   -0.1337   -2.4541 H   0  0  0  0  0  0
   10.5079   -0.4988   -2.0934 H   0  0  0  0  0  0
   10.4066    1.4900    1.5452 H   0  0  0  0  0  0
    7.9633    1.9324    1.3285 H   0  0  0  0  0  0
  1  2  2  0  0  0
  1  4  1  0  0  0
  2 12  1  0  0  0
  2  3  1  0  0  0
  3  9  2  0  0  0
  3 31  1  0  0  0
  4  8  2  0  0  0
  4 10  1  0  0  0
  5  6  1  0  0  0
  5  9  1  0  0  0
  5 22  1  0  0  0
  6  7  2  0  0  0
  6 32  1  0  0  0
  7  8  1  0  0  0
  8  9  1  0  0  0
 10 11  3  0  0  0
 12 17  1  0  0  0
 12 13  2  0  0  0
 13 14  1  0  0  0
 13 33  1  0  0  0
 14 15  2  0  0  0
 14 18  1  0  0  0
 15 16  1  0  0  0
 15 23  1  0  0  0
 16 17  2  0  0  0
 16 34  1  0  0  0
 17 35  1  0  0  0
 18 19  1  0  0  0
 18 20  1  0  0  0
 18 21  1  0  0  0
 22 36  1  0  0  0
 22 37  1  0  0  0
 22 38  1  0  0  0
 23 24  1  0  0  0
 24 25  1  0  0  0
 24 39  1  0  0  0
 24 40  1  0  0  0
 25 26  2  0  0  0
 25 30  1  0  0  0
 26 27  1  0  0  0
 26 41  1  0  0  0
 27 28  2  0  0  0
 27 42  1  0  0  0
 28 29  1  0  0  0
 29 30  2  0  0  0
 29 43  1  0  0  0
 30 44  1  0  0  0
M  END
> <chembl_id>
CHEMBL1208977

> <chembl_pref_name>
None

> <s_m_source_file>
sdf/inactives_sanitized.sdf

> <i_m_source_file_index>
280

> <i_lp_mmshare_version>
49012

> <i_m_ct_stereo_status>
1

> <i_f3d_flags>
0

> <s_epik_input>
bjFbY0hdbihbQ0gzXSljKGMxMilbY0hdYyhuYzJDI04pLWMzW2NIXWMoQyhGKShGKUYpYyhbY0hdW2NIXTMpT1tDSDJdYzRbY0hdW2NIXW5bY0hdW2NIXTQ=

> <s_epik_cmdline>
J2VwaWtfcHl0aG9uJywgJy1waHQnLCAnMC41JywgJy1waCcsICc3LjUnLCAnLW50JywgJy1tYScsICcyMDAnLCAnLWltYWUnLCAnPGluZmlsZS5tYWU+JywgJy1vbWFlJywgJzxvdXRmaWxlLm1hZT4n

> <r_lp_tautomer_probability>
1

> <r_epik_Ionization_Penalty>
  0.0013

> <r_epik_Ionization_Penalty_Charging>
  0.0000

> <r_epik_Ionization_Penalty_Neutral>
  0.0013

> <r_epik_State_Penalty>
 -0.0000

> <r_epik_Charging_Adjusted_Penalty>
2.10485508124941e-07

> <i_epik_Tot_Q>
0

> <i_epik_Tot_abs_Q>
0

> <s_lp_Force_Field>
OPLS3e

> <r_lp_Energy>
41.388386

> <b_lp_Chiralities_Consistent>
1

> <s_lp_Variant>
sdf/inactives_sanitized.sdf:280-1

$$$$
sdf/inactives_sanitized.sdf:281
                    3D
 Schrodinger Suite 2020-1.
 69 73  0  0  1  0            999 V2000
   -0.7306   -1.5135    1.1072 C   0  0  0  0  0  0
   -0.4132   -0.2739    0.2438 C   0  0  2  0  0  0
    1.0441   -0.1741    0.0760 N   0  0  0  0  0  0
    1.6911    0.1836   -1.0483 C   0  0  0  0  0  0
    1.1100    0.4405   -2.1045 O   0  0  0  0  0  0
    3.2101    0.4237   -0.9055 C   0  0  2  0  0  0
    3.5449    1.9135   -0.7783 C   0  0  0  0  0  0
    3.7948    2.3657   -2.2046 C   0  0  2  0  0  0
    4.3263    1.1440   -2.9562 C   0  0  0  0  0  0
    3.9500   -0.0038   -2.1139 N   0  0  0  0  0  0
    4.4560   -1.2624   -2.2508 C   0  0  0  0  0  0
    4.2811   -2.1002   -1.3603 O   0  0  0  0  0  0
    5.2177   -1.6979   -3.5506 C   0  0  0  0  0  0
    6.6646   -2.0773   -3.2300 C   0  0  0  0  0  0
    5.6743   -3.1572   -3.5595 C   0  0  0  0  0  0
    4.8626   -1.0428   -4.8901 C   0  0  0  0  0  0
    5.8057   -0.2930   -5.6026 C   0  0  0  0  0  0
    5.4460    0.3351   -6.7912 C   0  0  0  0  0  0
    4.1436    0.2149   -7.2705 C   0  0  0  0  0  0
    3.6941    1.0152   -8.7317 Cl  0  0  0  0  0  0
    3.2010   -0.5405   -6.5756 C   0  0  0  0  0  0
    3.5614   -1.1707   -5.3877 C   0  0  0  0  0  0
    4.9053    3.8956   -2.3206 S   0  0  0  0  0  0
    4.1717    5.0244   -1.7359 O   0  0  0  0  0  0
    6.2383    3.5618   -1.8080 O   0  0  0  0  0  0
    5.0082    4.1904   -4.1008 C   0  0  0  0  0  0
    4.0044    4.9827   -4.6733 C   0  0  0  0  0  0
    3.9856    5.2325   -6.0441 C   0  0  0  0  0  0
    4.9729    4.6918   -6.8627 C   0  0  0  0  0  0
    5.9784    3.9040   -6.3078 C   0  0  0  0  0  0
    6.0066    3.6454   -4.9351 C   0  0  0  0  0  0
    7.2948    2.6500   -4.3503 Cl  0  0  0  0  0  0
   -0.8541    1.0300    0.9104 C   0  0  0  0  0  0
   -1.2120    1.1251    2.0876 O   0  0  0  0  0  0
   -0.8323    2.3129   -0.0086 C   0  0  0  0  0  0
   -1.2433    2.2789   -1.1690 O   0  0  0  0  0  0
   -0.2867    3.3683    0.6210 N   0  0  0  0  0  0
   -0.1529    4.6978    0.0341 C   0  0  0  0  0  0
    0.6529    4.8774   -1.2376 C   0  0  0  0  0  0
    1.2013    5.3688    0.0792 C   0  0  0  0  0  0
   -1.8027   -1.6111    1.2842 H   0  0  0  0  0  0
   -0.2370   -1.4769    2.0801 H   0  0  0  0  0  0
   -0.4022   -2.4278    0.6112 H   0  0  0  0  0  0
   -0.9211   -0.4013   -0.7152 H   0  0  0  0  0  0
    1.5862   -0.3670    0.9059 H   0  0  0  0  0  0
    3.5203   -0.1397   -0.0231 H   0  0  0  0  0  0
    2.7994    2.5027   -0.2410 H   0  0  0  0  0  0
    4.4561    2.0111   -0.1860 H   0  0  0  0  0  0
    2.8532    2.6859   -2.6519 H   0  0  0  0  0  0
    3.8998    1.1415   -3.9585 H   0  0  0  0  0  0
    5.4130    1.2157   -2.9922 H   0  0  0  0  0  0
    7.4566   -1.8759   -3.9507 H   0  0  0  0  0  0
    7.0354   -2.0002   -2.2063 H   0  0  0  0  0  0
    5.7528   -3.6632   -4.5224 H   0  0  0  0  0  0
    5.3694   -3.8507   -2.7748 H   0  0  0  0  0  0
    6.8121   -0.1702   -5.2327 H   0  0  0  0  0  0
    6.1744    0.9226   -7.3308 H   0  0  0  0  0  0
    2.1917   -0.6326   -6.9493 H   0  0  0  0  0  0
    2.8245   -1.7443   -4.8441 H   0  0  0  0  0  0
    3.2212    5.4032   -4.0592 H   0  0  0  0  0  0
    3.2033    5.8426   -6.4712 H   0  0  0  0  0  0
    4.9593    4.8818   -7.9258 H   0  0  0  0  0  0
    6.7401    3.4883   -6.9514 H   0  0  0  0  0  0
   -0.0350    3.2739    1.5943 H   0  0  0  0  0  0
   -1.0411    5.3186    0.1601 H   0  0  0  0  0  0
    1.1001    4.0003   -1.7051 H   0  0  0  0  0  0
    0.3024    5.6028   -1.9717 H   0  0  0  0  0  0
    2.0389    4.8378    0.5329 H   0  0  0  0  0  0
    1.2406    6.4413    0.2692 H   0  0  0  0  0  0
  1  2  1  0  0  0
  1 41  1  0  0  0
  1 42  1  0  0  0
  1 43  1  0  0  0
  2  3  1  0  0  0
  2 33  1  0  0  0
  2 44  1  0  0  0
  3  4  1  0  0  0
  3 45  1  0  0  0
  4  5  2  0  0  0
  4  6  1  0  0  0
  6  7  1  0  0  0
  6 10  1  0  0  0
  6 46  1  0  0  0
  7  8  1  0  0  0
  7 47  1  0  0  0
  7 48  1  0  0  0
  8  9  1  0  0  0
  8 23  1  0  0  0
  8 49  1  0  0  0
  9 10  1  0  0  0
  9 50  1  0  0  0
  9 51  1  0  0  0
 10 11  1  0  0  0
 11 12  2  0  0  0
 11 13  1  0  0  0
 13 14  1  0  0  0
 13 15  1  0  0  0
 13 16  1  0  0  0
 14 15  1  0  0  0
 14 52  1  0  0  0
 14 53  1  0  0  0
 15 54  1  0  0  0
 15 55  1  0  0  0
 16 17  2  0  0  0
 16 22  1  0  0  0
 17 18  1  0  0  0
 17 56  1  0  0  0
 18 19  2  0  0  0
 18 57  1  0  0  0
 19 20  1  0  0  0
 19 21  1  0  0  0
 21 22  2  0  0  0
 21 58  1  0  0  0
 22 59  1  0  0  0
 23 24  2  0  0  0
 23 25  2  0  0  0
 23 26  1  0  0  0
 26 27  2  0  0  0
 26 31  1  0  0  0
 27 28  1  0  0  0
 27 60  1  0  0  0
 28 29  2  0  0  0
 28 61  1  0  0  0
 29 30  1  0  0  0
 29 62  1  0  0  0
 30 31  2  0  0  0
 30 63  1  0  0  0
 31 32  1  0  0  0
 33 34  2  0  0  0
 33 35  1  0  0  0
 35 36  2  0  0  0
 35 37  1  0  0  0
 37 38  1  0  0  0
 37 64  1  0  0  0
 38 39  1  0  0  0
 38 40  1  0  0  0
 38 65  1  0  0  0
 39 40  1  0  0  0
 39 66  1  0  0  0
 39 67  1  0  0  0
 40 68  1  0  0  0
 40 69  1  0  0  0
M  END
> <chembl_id>
CHEMBL3649395

> <chembl_pref_name>
None

> <i_m_ct_stereo_status>
1

> <s_m_source_file>
sdf/inactives_sanitized.sdf

> <i_m_source_file_index>
281

> <i_lp_mmshare_version>
49012

> <i_f3d_flags>
0

> <s_epik_input>
W0NIMl0xW0NIMl1bQ0hdMVtOSF1DKD1PKUMoPU8pW0NASF0oW0NIM10pW05IXUMoPU8pW0NAQEhdMltDSDJdW0NAQEhdKFMoPU8pKD1PKWMzW2NIXVtjSF1bY0hdW2NIXWMzQ2wpW0NIMl1OMkMoPU8pQzQoW0NIMl1bQ0gyXTQpYzVbY0hdW2NIXWMoQ2wpW2NIXVtjSF01

> <s_epik_cmdline>
J2VwaWtfcHl0aG9uJywgJy1waHQnLCAnMC41JywgJy1waCcsICc3LjUnLCAnLW50JywgJy1tYScsICcyMDAnLCAnLWltYWUnLCAnPGluZmlsZS5tYWU+JywgJy1vbWFlJywgJzxvdXRmaWxlLm1hZT4n

> <r_lp_tautomer_probability>
1

> <r_epik_Ionization_Penalty>
  0.0000

> <r_epik_Ionization_Penalty_Charging>
  0.0000

> <r_epik_Ionization_Penalty_Neutral>
  0.0000

> <r_epik_State_Penalty>
 -0.0000

> <r_epik_Charging_Adjusted_Penalty>
0

> <i_epik_Tot_Q>
0

> <i_epik_Tot_abs_Q>
0

> <s_lp_Force_Field>
OPLS3e

> <r_lp_Energy>
52.303017

> <b_lp_Chiralities_Consistent>
1

> <s_lp_Variant>
sdf/inactives_sanitized.sdf:281-1

$$$$
sdf/inactives_sanitized.sdf:282
                    3D
 Schrodinger Suite 2020-1.
 80 83  0  0  1  0            999 V2000
   -3.1214   -2.2823    2.3787 N   0  0  0  0  0  0
    1.2664   -1.9308   -1.9275 C   0  0  0  0  0  0
    1.8559   -0.8115   -0.9606 C   0  0  0  0  0  0
   -3.8376   -1.1920    2.2973 C   0  0  0  0  0  0
   -2.8889   -2.6703    3.6247 C   0  0  0  0  0  0
    1.7825   -1.8532   -3.1689 N   0  0  0  0  0  0
   -4.3303   -0.5277    3.8285 S   0  0  0  0  0  0
   -0.8263    0.6788   -0.3274 C   0  0  0  0  0  0
   -3.4696   -1.8327    4.5873 C   0  0  0  0  0  0
   -0.2707   -0.4521    0.2660 N   0  0  0  0  0  0
    1.1908   -0.6197    0.4082 C   0  0  1  0  0  0
   -4.5016    1.3093   -0.3157 C   0  0  0  0  0  0
   -2.0672   -3.9020    3.8935 C   0  0  0  0  0  0
    1.4327   -2.7209   -4.3004 C   0  0  1  0  0  0
    2.8318   -0.1405   -1.3069 O   0  0  0  0  0  0
    0.4294   -2.7497   -1.5445 O   0  0  0  0  0  0
   -4.2071   -0.6287    1.0982 O   0  0  0  0  0  0
   -0.2157    1.6366   -0.8082 O   0  0  0  0  0  0
   -2.1611    0.5797   -0.2536 O   0  0  0  0  0  0
    1.8019   -2.1277   -5.6665 C   0  0  0  0  0  0
   -1.9252   -4.3796    5.2030 C   0  0  0  0  0  0
   -1.4267   -4.5882    2.8506 C   0  0  0  0  0  0
   -4.7678    0.6846    1.0781 C   0  0  0  0  0  0
   -3.0075    1.6974   -0.4952 C   0  0  0  0  0  0
   -1.1545   -5.5085    5.4663 C   0  0  0  0  0  0
   -0.6596   -5.7202    3.1116 C   0  0  0  0  0  0
   -0.5222   -6.1806    4.4210 C   0  0  0  0  0  0
   -5.0845    0.5094   -1.4998 C   0  0  0  0  0  0
   -5.4682    2.4496   -0.6959 C   0  0  0  0  0  0
    1.5579   -1.7799    1.3706 C   0  0  0  0  0  0
   -5.5936    1.8293   -2.0949 C   0  0  0  0  0  0
    2.0074   -4.1436   -4.1365 C   0  0  0  0  0  0
    1.1064   -2.5629   -6.8006 C   0  0  0  0  0  0
    2.7910   -1.1424   -5.8035 C   0  0  0  0  0  0
    0.3279   -7.4025    4.7173 C   0  0  0  0  0  0
    1.0726   -1.5463    2.8167 C   0  0  0  0  0  0
    1.5977   -2.5995    3.8078 C   0  0  0  0  0  0
    1.1492   -2.3338    5.2510 C   0  0  0  0  0  0
    1.4002   -2.0328   -8.0541 C   0  0  0  0  0  0
    3.0849   -0.6124   -7.0571 C   0  0  0  0  0  0
    2.3889   -1.0601   -8.1769 C   0  0  0  0  0  0
    2.4563   -1.1256   -3.3593 H   0  0  0  0  0  0
   -3.4380   -1.9129    5.6636 H   0  0  0  0  0  0
   -0.8593   -0.9826    0.8920 H   0  0  0  0  0  0
    1.5754    0.2896    0.8769 H   0  0  0  0  0  0
    0.3418   -2.7925   -4.3005 H   0  0  0  0  0  0
   -2.4036   -3.8801    6.0319 H   0  0  0  0  0  0
   -1.5101   -4.2462    1.8291 H   0  0  0  0  0  0
   -4.3410    1.3393    1.8400 H   0  0  0  0  0  0
   -5.8373    0.6088    1.2816 H   0  0  0  0  0  0
   -2.7523    2.4981    0.2011 H   0  0  0  0  0  0
   -2.8305    2.0815   -1.5014 H   0  0  0  0  0  0
   -1.0498   -5.8584    6.4830 H   0  0  0  0  0  0
   -0.1698   -6.2312    2.2954 H   0  0  0  0  0  0
   -4.3591   -0.0338   -2.1073 H   0  0  0  0  0  0
   -5.8894   -0.1722   -1.2170 H   0  0  0  0  0  0
   -6.4083    2.4394   -0.1406 H   0  0  0  0  0  0
   -5.0517    3.4574   -0.6637 H   0  0  0  0  0  0
    1.1412   -2.7231    1.0126 H   0  0  0  0  0  0
    2.6425   -1.9058    1.3875 H   0  0  0  0  0  0
   -6.6034    1.7991   -2.5059 H   0  0  0  0  0  0
   -4.9128    2.2670   -2.8274 H   0  0  0  0  0  0
    1.6739   -4.8020   -4.9392 H   0  0  0  0  0  0
    1.6918   -4.6004   -3.1980 H   0  0  0  0  0  0
    3.0980   -4.1333   -4.1466 H   0  0  0  0  0  0
    0.3360   -3.3153   -6.7116 H   0  0  0  0  0  0
    3.3435   -0.7856   -4.9471 H   0  0  0  0  0  0
    0.9563   -7.6790    3.8696 H   0  0  0  0  0  0
   -0.3040   -8.2499    4.9851 H   0  0  0  0  0  0
    0.9910   -7.2035    5.5601 H   0  0  0  0  0  0
    1.3918   -0.5576    3.1502 H   0  0  0  0  0  0
   -0.0184   -1.5423    2.8408 H   0  0  0  0  0  0
    1.2619   -3.5903    3.5024 H   0  0  0  0  0  0
    2.6877   -2.6265    3.7750 H   0  0  0  0  0  0
    1.4882   -3.1280    5.9165 H   0  0  0  0  0  0
    0.0631   -2.2790    5.3262 H   0  0  0  0  0  0
    1.5556   -1.3928    5.6231 H   0  0  0  0  0  0
    0.8630   -2.3734   -8.9269 H   0  0  0  0  0  0
    3.8497    0.1433   -7.1601 H   0  0  0  0  0  0
    2.6169   -0.6482   -9.1489 H   0  0  0  0  0  0
  1  4  2  0  0  0
  1  5  1  0  0  0
  2  3  1  0  0  0
  2  6  1  0  0  0
  2 16  2  0  0  0
  3 11  1  0  0  0
  3 15  2  0  0  0
  4  7  1  0  0  0
  4 17  1  0  0  0
  5  9  2  0  0  0
  5 13  1  0  0  0
  6 14  1  0  0  0
  6 42  1  0  0  0
  7  9  1  0  0  0
  8 19  1  0  0  0
  8 10  1  0  0  0
  8 18  2  0  0  0
  9 43  1  0  0  0
 10 11  1  0  0  0
 10 44  1  0  0  0
 11 30  1  0  0  0
 11 45  1  0  0  0
 12 23  1  0  0  0
 12 24  1  0  0  0
 12 28  1  0  0  0
 12 29  1  0  0  0
 13 21  2  0  0  0
 13 22  1  0  0  0
 14 20  1  0  0  0
 14 32  1  0  0  0
 14 46  1  0  0  0
 17 23  1  0  0  0
 19 24  1  0  0  0
 20 33  2  0  0  0
 20 34  1  0  0  0
 21 25  1  0  0  0
 21 47  1  0  0  0
 22 26  2  0  0  0
 22 48  1  0  0  0
 23 49  1  0  0  0
 23 50  1  0  0  0
 24 51  1  0  0  0
 24 52  1  0  0  0
 25 27  2  0  0  0
 25 53  1  0  0  0
 26 27  1  0  0  0
 26 54  1  0  0  0
 27 35  1  0  0  0
 28 31  1  0  0  0
 28 55  1  0  0  0
 28 56  1  0  0  0
 29 31  1  0  0  0
 29 57  1  0  0  0
 29 58  1  0  0  0
 30 36  1  0  0  0
 30 59  1  0  0  0
 30 60  1  0  0  0
 31 61  1  0  0  0
 31 62  1  0  0  0
 32 63  1  0  0  0
 32 64  1  0  0  0
 32 65  1  0  0  0
 33 39  1  0  0  0
 33 66  1  0  0  0
 34 40  2  0  0  0
 34 67  1  0  0  0
 35 68  1  0  0  0
 35 69  1  0  0  0
 35 70  1  0  0  0
 36 37  1  0  0  0
 36 71  1  0  0  0
 36 72  1  0  0  0
 37 38  1  0  0  0
 37 73  1  0  0  0
 37 74  1  0  0  0
 38 75  1  0  0  0
 38 76  1  0  0  0
 38 77  1  0  0  0
 39 41  2  0  0  0
 39 78  1  0  0  0
 40 41  1  0  0  0
 40 79  1  0  0  0
 41 80  1  0  0  0
M  END
> <chembl_id>
CHEMBL362766

> <chembl_pref_name>
None

> <i_m_ct_stereo_status>
1

> <s_m_source_file>
sdf/inactives_sanitized.sdf

> <i_m_source_file_index>
282

> <i_lp_mmshare_version>
49012

> <i_f3d_flags>
0

> <s_epik_input>
W2NIXTFbY0hdYyhbQ0gzXSlbY0hdW2NIXWMxLWMoW2NIXXMyKW5jMk9bQ0gyXUMzKFtDSDJdW0NIMl1bQ0gyXTMpW0NIMl1PQyg9TylbTkhdW0NAQEhdKFtDSDJdW0NIMl1bQ0gyXVtDSDNdKUMoPU8pQyg9TylbTkhdW0NASF0oW0NIM10pYzRbY0hdW2NIXVtjSF1bY0hdW2NIXTQ=

> <s_epik_cmdline>
J2VwaWtfcHl0aG9uJywgJy1waHQnLCAnMC41JywgJy1waCcsICc3LjUnLCAnLW50JywgJy1tYScsICcyMDAnLCAnLWltYWUnLCAnPGluZmlsZS5tYWU+JywgJy1vbWFlJywgJzxvdXRmaWxlLm1hZT4n

> <r_lp_tautomer_probability>
1

> <r_epik_Ionization_Penalty>
  0.0014

> <r_epik_Ionization_Penalty_Charging>
  0.0000

> <r_epik_Ionization_Penalty_Neutral>
  0.0014

> <r_epik_State_Penalty>
 -0.0000

> <r_epik_Charging_Adjusted_Penalty>
0

> <i_epik_Tot_Q>
0

> <i_epik_Tot_abs_Q>
0

> <s_epik_Chemistry_Notes>
This compound has an ester and may undergo hydrolysis at high or low pH.

> <s_lp_Force_Field>
OPLS3e

> <r_lp_Energy>
56.985478

> <b_lp_Chiralities_Consistent>
1

> <s_lp_Variant>
sdf/inactives_sanitized.sdf:282-1

$$$$
sdf/inactives_sanitized.sdf:283
                    3D
 Schrodinger Suite 2020-1.
 60 63  0  0  1  0            999 V2000
   -8.1455    1.4328    3.0723 C   0  0  0  0  0  0
   -7.4239    2.3296    1.5760 S   0  0  0  0  0  0
   -8.5276    2.7986    0.7308 O   0  0  0  0  0  0
   -6.4258    3.2875    2.0656 O   0  0  0  0  0  0
   -6.5501    1.0267    0.6712 C   0  0  0  0  0  0
   -5.1489    1.0550    0.6721 C   0  0  0  0  0  0
   -4.3910    0.0907   -0.0041 C   0  0  0  0  0  0
   -5.0688   -0.9232   -0.6886 C   0  0  0  0  0  0
   -6.4603   -0.9743   -0.6963 C   0  0  0  0  0  0
   -7.2126   -0.0090   -0.0210 C   0  0  0  0  0  0
   -8.6658   -0.1354   -0.0626 C   0  0  0  0  0  0
   -9.8182   -0.2367   -0.0948 N   0  0  0  0  0  0
   -2.9010    0.1446    0.0013 C   0  0  0  0  0  0
   -2.1450   -1.0252    0.1507 C   0  0  0  0  0  0
   -0.7535   -0.9770    0.1498 C   0  0  0  0  0  0
   -0.0990    0.2459   -0.0003 C   0  0  0  0  0  0
    1.4233    0.2963   -0.0129 C   0  0  0  0  0  0
    2.0381   -0.0739   -1.3787 C   0  0  2  0  0  0
    3.5013   -0.0809   -1.3063 N   0  0  0  0  0  0
    4.3347   -0.4247   -2.3101 C   0  0  0  0  0  0
    3.9151   -0.7834   -3.4109 O   0  0  0  0  0  0
    5.8638   -0.3281   -2.0583 C   0  0  2  0  0  0
    6.3413    1.1390   -1.8605 C   0  0  0  0  0  0
    7.8507    1.1684   -1.4846 C   0  0  0  0  0  0
    8.4411   -0.2674   -1.3803 C   0  0  2  0  0  0
    8.2360   -0.9882   -2.7432 C   0  0  0  0  0  0
    6.7321   -1.0426   -3.1367 C   0  0  0  0  0  0
    7.6128   -1.0397   -0.3130 C   0  0  0  0  0  0
    6.1166   -1.0741   -0.7212 N   0  3  0  0  0  0
    1.5443    0.7983   -2.4645 C   0  0  0  0  0  0
    1.1578    1.4821   -3.3141 N   0  0  0  0  0  0
   -0.8406    1.4185   -0.1484 C   0  0  0  0  0  0
   -2.2317    1.3659   -0.1476 C   0  0  0  0  0  0
   -8.6669    2.1581    3.6962 H   0  0  0  0  0  0
   -7.3334    0.9749    3.6362 H   0  0  0  0  0  0
   -8.8445    0.6684    2.7364 H   0  0  0  0  0  0
   -4.6314    1.8367    1.2085 H   0  0  0  0  0  0
   -4.5166   -1.6795   -1.2275 H   0  0  0  0  0  0
   -6.9451   -1.7766   -1.2357 H   0  0  0  0  0  0
   -2.6342   -1.9808    0.2717 H   0  0  0  0  0  0
   -0.1877   -1.8906    0.2629 H   0  0  0  0  0  0
    1.7559    1.2902    0.2932 H   0  0  0  0  0  0
    1.7946   -0.3779    0.7610 H   0  0  0  0  0  0
    1.7119   -1.0852   -1.6305 H   0  0  0  0  0  0
    3.8982    0.1907   -0.4191 H   0  0  0  0  0  0
    6.1780    1.7140   -2.7741 H   0  0  0  0  0  0
    5.7619    1.6413   -1.0832 H   0  0  0  0  0  0
    8.4068    1.7421   -2.2278 H   0  0  0  0  0  0
    7.9910    1.6991   -0.5414 H   0  0  0  0  0  0
    9.4971   -0.2375   -1.1080 H   0  0  0  0  0  0
    8.8057   -0.4761   -3.5205 H   0  0  0  0  0  0
    8.6463   -1.9982   -2.6970 H   0  0  0  0  0  0
    6.5916   -0.5690   -4.1103 H   0  0  0  0  0  0
    6.4200   -2.0816   -3.2610 H   0  0  0  0  0  0
    7.9166   -2.0828   -0.2140 H   0  0  0  0  0  0
    7.6419   -0.5664    0.6695 H   0  0  0  0  0  0
    5.8235   -2.0364   -0.8159 H   0  0  0  0  0  0
   -0.3437    2.3701   -0.2714 H   0  0  0  0  0  0
   -2.7882    2.2835   -0.2731 H   0  0  0  0  0  0
    5.5676   -0.6510    0.0129 H   0  0  0  0  0  0
  1  2  1  0  0  0
  1 34  1  0  0  0
  1 35  1  0  0  0
  1 36  1  0  0  0
  2  3  2  0  0  0
  2  4  2  0  0  0
  2  5  1  0  0  0
  5  6  2  0  0  0
  5 10  1  0  0  0
  6  7  1  0  0  0
  6 37  1  0  0  0
  7  8  2  0  0  0
  7 13  1  0  0  0
  8  9  1  0  0  0
  8 38  1  0  0  0
  9 10  2  0  0  0
  9 39  1  0  0  0
 10 11  1  0  0  0
 11 12  3  0  0  0
 13 14  2  0  0  0
 13 33  1  0  0  0
 14 15  1  0  0  0
 14 40  1  0  0  0
 15 16  2  0  0  0
 15 41  1  0  0  0
 16 17  1  0  0  0
 16 32  1  0  0  0
 17 18  1  0  0  0
 17 42  1  0  0  0
 17 43  1  0  0  0
 18 19  1  0  0  0
 18 30  1  0  0  0
 18 44  1  0  0  0
 19 20  1  0  0  0
 19 45  1  0  0  0
 20 21  2  0  0  0
 20 22  1  0  0  0
 22 23  1  0  0  0
 22 27  1  0  0  0
 22 29  1  0  0  0
 23 24  1  0  0  0
 23 46  1  0  0  0
 23 47  1  0  0  0
 24 25  1  0  0  0
 24 48  1  0  0  0
 24 49  1  0  0  0
 25 26  1  0  0  0
 25 28  1  0  0  0
 25 50  1  0  0  0
 26 27  1  0  0  0
 26 51  1  0  0  0
 26 52  1  0  0  0
 27 53  1  0  0  0
 27 54  1  0  0  0
 28 29  1  0  0  0
 28 55  1  0  0  0
 28 56  1  0  0  0
 29 57  1  0  0  0
 29 60  1  0  0  0
 30 31  3  0  0  0
 32 33  2  0  0  0
 32 58  1  0  0  0
 33 59  1  0  0  0
M  CHG  1  29   1
M  END
> <chembl_id>
CHEMBL3702569

> <chembl_pref_name>
None

> <i_m_ct_stereo_status>
1

> <s_m_source_file>
sdf/inactives_sanitized.sdf

> <i_m_source_file_index>
283

> <i_lp_mmshare_version>
49012

> <i_f3d_flags>
0

> <s_epik_input>
TiNDYzFbY0hdW2NIXWMoW2NIXWMxUyg9TykoPU8pW0NIM10pLWMyW2NIXVtjSF1jKFtjSF1bY0hdMilbQ0gyXVtDQEBIXShDI04pW05IXUMoPU8pW0NAXTM0W0NIMl1bQ0gyXVtDQEhdKFtDSDJdW0NIMl0zKVtDSDJdW05IXTQ=

> <s_epik_cmdline>
J2VwaWtfcHl0aG9uJywgJy1waHQnLCAnMC41JywgJy1waCcsICc3LjUnLCAnLW50JywgJy1tYScsICcyMDAnLCAnLWltYWUnLCAnPGluZmlsZS5tYWU+JywgJy1vbWFlJywgJzxvdXRmaWxlLm1hZT4n

> <r_epik_Ionization_Penalty>
  0.2492

> <r_epik_Ionization_Penalty_Charging>
  0.2491

> <r_epik_Ionization_Penalty_Neutral>
  0.0001

> <r_epik_State_Penalty>
  0.2404

> <r_epik_Charging_Adjusted_Penalty>
0.489493738808436

> <i_epik_Tot_Q>
1

> <i_epik_Tot_abs_Q>
1

> <s_lp_Force_Field>
OPLS3e

> <r_lp_Energy>
53.951855

> <b_lp_Chiralities_Consistent>
1

> <s_lp_Variant>
sdf/inactives_sanitized.sdf:283-1

$$$$
sdf/inactives_sanitized.sdf:283
                    3D
 Schrodinger Suite 2020-1.
 59 62  0  0  1  0            999 V2000
   -8.3457    1.5460   -2.6352 C   0  0  0  0  0  0
   -7.5718    2.4230   -1.1533 S   0  0  0  0  0  0
   -6.5602    3.3563   -1.6626 O   0  0  0  0  0  0
   -8.6451    2.9178   -0.2843 O   0  0  0  0  0  0
   -6.7121    1.0948   -0.2725 C   0  0  0  0  0  0
   -5.3116    1.0783   -0.3186 C   0  0  0  0  0  0
   -4.5644    0.0861    0.3282 C   0  0  0  0  0  0
   -5.2512   -0.9076    1.0325 C   0  0  0  0  0  0
   -6.6427   -0.9121    1.0882 C   0  0  0  0  0  0
   -7.3848    0.0790    0.4394 C   0  0  0  0  0  0
   -8.8394   -0.0021    0.5261 C   0  0  0  0  0  0
   -9.9927   -0.0676    0.5940 N   0  0  0  0  0  0
   -3.0753    0.0896    0.2683 C   0  0  0  0  0  0
   -2.3673   -1.0991    0.0502 C   0  0  0  0  0  0
   -0.9762   -1.0968   -0.0091 C   0  0  0  0  0  0
   -0.2744    0.0985    0.1538 C   0  0  0  0  0  0
    1.2482    0.1125    0.0825 C   0  0  0  0  0  0
    1.8020    0.7160   -1.2251 C   0  0  2  0  0  0
    1.3486   -0.0282   -2.4036 N   0  0  0  0  0  0
    1.6042    0.2935   -3.6881 C   0  0  0  0  0  0
    2.2684    1.2892   -3.9825 O   0  0  0  0  0  0
    1.0476   -0.6102   -4.8303 C   0  0  2  0  0  0
    2.2359   -1.3043   -5.5696 C   0  0  0  0  0  0
    1.7056   -2.2075   -6.7183 C   0  0  0  0  0  0
    0.1550   -2.1585   -6.7722 C   0  0  2  0  0  0
   -0.3018   -0.6899   -6.9990 C   0  0  0  0  0  0
    0.2285    0.2292   -5.8608 C   0  0  0  0  0  0
   -0.3464   -2.5714   -5.3556 C   0  0  0  0  0  0
    0.1500   -1.6645   -4.2995 N   0  0  2  0  0  0
    3.2727    0.8323   -1.1750 C   0  0  0  0  0  0
    4.4257    0.9234   -1.1346 N   0  0  0  0  0  0
   -0.9685    1.2883    0.3740 C   0  0  0  0  0  0
   -2.3595    1.2825    0.4287 C   0  0  0  0  0  0
   -8.8682    2.2831   -3.2442 H   0  0  0  0  0  0
   -9.0504    0.7933   -2.2845 H   0  0  0  0  0  0
   -7.5561    1.0747   -3.2195 H   0  0  0  0  0  0
   -4.7866    1.8441   -0.8703 H   0  0  0  0  0  0
   -4.7061   -1.6847    1.5487 H   0  0  0  0  0  0
   -7.1355   -1.6995    1.6424 H   0  0  0  0  0  0
   -2.8947   -2.0327   -0.0822 H   0  0  0  0  0  0
   -0.4486   -2.0234   -0.1839 H   0  0  0  0  0  0
    1.6263    0.6742    0.9383 H   0  0  0  0  0  0
    1.6325   -0.9004    0.2170 H   0  0  0  0  0  0
    1.4218    1.7358   -1.3124 H   0  0  0  0  0  0
    0.7680   -0.8344   -2.2238 H   0  0  0  0  0  0
    2.9219   -0.5614   -5.9816 H   0  0  0  0  0  0
    2.8261   -1.9048   -4.8741 H   0  0  0  0  0  0
    2.1224   -1.8846   -7.6734 H   0  0  0  0  0  0
    2.0445   -3.2349   -6.5764 H   0  0  0  0  0  0
   -0.2378   -2.8230   -7.5427 H   0  0  0  0  0  0
    0.0552   -0.3336   -7.9663 H   0  0  0  0  0  0
   -1.3907   -0.6400   -7.0457 H   0  0  0  0  0  0
    0.8452    1.0197   -6.2930 H   0  0  0  0  0  0
   -0.6079    0.7337   -5.3727 H   0  0  0  0  0  0
   -1.4366   -2.5717   -5.3285 H   0  0  0  0  0  0
   -0.0301   -3.5886   -5.1218 H   0  0  0  0  0  0
   -0.6569   -1.2130   -3.8932 H   0  0  0  0  0  0
   -0.4328    2.2181    0.5007 H   0  0  0  0  0  0
   -2.8799    2.2131    0.6039 H   0  0  0  0  0  0
  1  2  1  0  0  0
  1 34  1  0  0  0
  1 35  1  0  0  0
  1 36  1  0  0  0
  2  3  2  0  0  0
  2  4  2  0  0  0
  2  5  1  0  0  0
  5  6  2  0  0  0
  5 10  1  0  0  0
  6  7  1  0  0  0
  6 37  1  0  0  0
  7  8  2  0  0  0
  7 13  1  0  0  0
  8  9  1  0  0  0
  8 38  1  0  0  0
  9 10  2  0  0  0
  9 39  1  0  0  0
 10 11  1  0  0  0
 11 12  3  0  0  0
 13 14  2  0  0  0
 13 33  1  0  0  0
 14 15  1  0  0  0
 14 40  1  0  0  0
 15 16  2  0  0  0
 15 41  1  0  0  0
 16 17  1  0  0  0
 16 32  1  0  0  0
 17 18  1  0  0  0
 17 42  1  0  0  0
 17 43  1  0  0  0
 18 19  1  0  0  0
 18 30  1  0  0  0
 18 44  1  0  0  0
 19 20  1  0  0  0
 19 45  1  0  0  0
 20 21  2  0  0  0
 20 22  1  0  0  0
 22 23  1  0  0  0
 22 27  1  0  0  0
 22 29  1  0  0  0
 23 24  1  0  0  0
 23 46  1  0  0  0
 23 47  1  0  0  0
 24 25  1  0  0  0
 24 48  1  0  0  0
 24 49  1  0  0  0
 25 26  1  0  0  0
 25 28  1  0  0  0
 25 50  1  0  0  0
 26 27  1  0  0  0
 26 51  1  0  0  0
 26 52  1  0  0  0
 27 53  1  0  0  0
 27 54  1  0  0  0
 28 29  1  0  0  0
 28 55  1  0  0  0
 28 56  1  0  0  0
 29 57  1  0  0  0
 30 31  3  0  0  0
 32 33  2  0  0  0
 32 58  1  0  0  0
 33 59  1  0  0  0
M  END
> <chembl_id>
CHEMBL3702569

> <chembl_pref_name>
None

> <i_m_ct_stereo_status>
1

> <s_m_source_file>
sdf/inactives_sanitized.sdf

> <i_m_source_file_index>
283

> <i_lp_mmshare_version>
49012

> <i_f3d_flags>
0

> <s_epik_input>
TiNDYzFbY0hdW2NIXWMoW2NIXWMxUyg9TykoPU8pW0NIM10pLWMyW2NIXVtjSF1jKFtjSF1bY0hdMilbQ0gyXVtDQEBIXShDI04pW05IXUMoPU8pW0NAXTM0W0NIMl1bQ0gyXVtDQEhdKFtDSDJdW0NIMl0zKVtDSDJdW05IXTQ=

> <s_epik_cmdline>
J2VwaWtfcHl0aG9uJywgJy1waHQnLCAnMC41JywgJy1waCcsICc3LjUnLCAnLW50JywgJy1tYScsICcyMDAnLCAnLWltYWUnLCAnPGluZmlsZS5tYWU+JywgJy1vbWFlJywgJzxvdXRmaWxlLm1hZT4n

> <r_epik_Ionization_Penalty>
  0.6336

> <r_epik_Ionization_Penalty_Charging>
  0.0000

> <r_epik_Ionization_Penalty_Neutral>
  0.6336

> <r_epik_State_Penalty>
  0.6506

> <r_epik_Charging_Adjusted_Penalty>
0.650608926039391

> <i_epik_Tot_Q>
0

> <i_epik_Tot_abs_Q>
0

> <s_lp_Force_Field>
OPLS3e

> <r_lp_Energy>
49.467108

> <b_lp_Chiralities_Consistent>
1

> <s_lp_Variant>
sdf/inactives_sanitized.sdf:283-2

$$$$
sdf/inactives_sanitized.sdf:284
                    3D
 Schrodinger Suite 2020-1.
 72 73  0  0  1  0            999 V2000
   -3.0925    1.8726   -0.0963 C   0  0  0  0  0  0
   -0.7220    1.0870   -0.1753 C   0  0  0  0  0  0
   -0.0658   -0.1412   -0.1250 N   0  0  0  0  0  0
    1.4094   -0.2395   -0.1095 C   0  0  2  0  0  0
    1.9747    0.2303   -1.4605 C   0  0  0  0  0  0
    3.4312    0.8502   -1.4139 C   0  0  0  0  0  0
    1.3646    0.1445   -2.5323 O   0  0  0  0  0  0
    3.9648    1.1734   -0.3514 O   0  0  0  0  0  0
    3.9881    0.9415   -2.6371 N   0  0  0  0  0  0
   -2.0611    0.8611   -0.0985 O   0  0  0  0  0  0
   -0.1904    2.1965   -0.2483 O   0  0  0  0  0  0
    1.8291   -1.7055    0.1941 C   0  0  0  0  0  0
    3.3298   -1.9371    0.4779 C   0  0  0  0  0  0
    3.6377   -3.3626    0.9671 C   0  0  0  0  0  0
    5.1305   -3.5867    1.2438 C   0  0  0  0  0  0
    5.3585    1.3874   -2.9115 C   0  0  1  0  0  0
    6.4530    0.4785   -2.3340 C   0  0  0  0  0  0
    5.5567    1.5904   -4.4229 C   0  0  0  0  0  0
    7.6195    1.0527   -1.8181 C   0  0  0  0  0  0
    8.6120    0.2471   -1.2659 C   0  0  0  0  0  0
    8.4378   -1.1343   -1.2266 C   0  0  0  0  0  0
    7.2798   -1.7177   -1.7349 C   0  0  0  0  0  0
    6.2875   -0.9124   -2.2864 C   0  0  0  0  0  0
   -2.9791    2.7871    1.1729 C   0  0  0  0  0  0
   -2.8814    2.0678    2.5198 C   0  0  0  0  0  0
   -4.0434    1.7256    3.2187 C   0  0  0  0  0  0
   -3.9543    1.0725    4.4453 C   0  0  0  0  0  0
   -2.7027    0.7696    4.9764 C   0  0  0  0  0  0
   -1.5395    1.1191    4.2947 C   0  0  0  0  0  0
   -1.6292    1.7726    3.0687 C   0  0  0  0  0  0
   -3.0226    2.7610   -1.3846 C   0  0  0  0  0  0
   -3.0591    2.0073   -2.7277 C   0  0  0  0  0  0
   -4.4033    1.0232   -0.0744 C   0  0  0  0  0  0
   -5.7317    1.8010   -0.1508 C   0  0  0  0  0  0
   -0.5805   -0.9194    0.2601 H   0  0  0  0  0  0
    1.7496    0.3774    0.7258 H   0  0  0  0  0  0
    3.4398    0.6594   -3.4368 H   0  0  0  0  0  0
    1.2686   -2.0406    1.0690 H   0  0  0  0  0  0
    1.5045   -2.3614   -0.6164 H   0  0  0  0  0  0
    3.9103   -1.7508   -0.4257 H   0  0  0  0  0  0
    3.6734   -1.2196    1.2249 H   0  0  0  0  0  0
    3.0721   -3.5695    1.8767 H   0  0  0  0  0  0
    3.2991   -4.0863    0.2245 H   0  0  0  0  0  0
    5.3146   -4.6051    1.5868 H   0  0  0  0  0  0
    5.4961   -2.9069    2.0143 H   0  0  0  0  0  0
    5.7280   -3.4274    0.3458 H   0  0  0  0  0  0
    5.4568    2.3727   -2.4490 H   0  0  0  0  0  0
    6.5380    2.0142   -4.6398 H   0  0  0  0  0  0
    4.8115    2.2746   -4.8312 H   0  0  0  0  0  0
    5.4732    0.6491   -4.9677 H   0  0  0  0  0  0
    7.7585    2.1238   -1.8418 H   0  0  0  0  0  0
    9.5119    0.6918   -0.8673 H   0  0  0  0  0  0
    9.2075   -1.7586   -0.7973 H   0  0  0  0  0  0
    7.1514   -2.7895   -1.7002 H   0  0  0  0  0  0
    5.3912   -1.3728   -2.6759 H   0  0  0  0  0  0
   -2.1110    3.4420    1.0839 H   0  0  0  0  0  0
   -3.8175    3.4830    1.2122 H   0  0  0  0  0  0
   -5.0164    1.9598    2.8137 H   0  0  0  0  0  0
   -4.8516    0.8028    4.9826 H   0  0  0  0  0  0
   -2.6337    0.2631    5.9279 H   0  0  0  0  0  0
   -0.5723    0.8866    4.7157 H   0  0  0  0  0  0
   -0.7232    2.0480    2.5492 H   0  0  0  0  0  0
   -3.8370    3.4856   -1.3732 H   0  0  0  0  0  0
   -2.1227    3.3755   -1.3689 H   0  0  0  0  0  0
   -2.9447    2.7012   -3.5607 H   0  0  0  0  0  0
   -4.0037    1.4837   -2.8730 H   0  0  0  0  0  0
   -2.2535    1.2763   -2.8001 H   0  0  0  0  0  0
   -4.3908    0.3082   -0.8984 H   0  0  0  0  0  0
   -4.4224    0.3997    0.8201 H   0  0  0  0  0  0
   -6.5781    1.1176   -0.0786 H   0  0  0  0  0  0
   -5.8333    2.3357   -1.0949 H   0  0  0  0  0  0
   -5.8331    2.5243    0.6572 H   0  0  0  0  0  0
  1 10  1  0  0  0
  1 24  1  0  0  0
  1 31  1  0  0  0
  1 33  1  0  0  0
  2 10  1  0  0  0
  2 11  2  0  0  0
  2  3  1  0  0  0
  3  4  1  0  0  0
  3 35  1  0  0  0
  4 12  1  0  0  0
  4  5  1  0  0  0
  4 36  1  0  0  0
  5  6  1  0  0  0
  5  7  2  0  0  0
  6  8  2  0  0  0
  6  9  1  0  0  0
  9 16  1  0  0  0
  9 37  1  0  0  0
 12 13  1  0  0  0
 12 38  1  0  0  0
 12 39  1  0  0  0
 13 14  1  0  0  0
 13 40  1  0  0  0
 13 41  1  0  0  0
 14 15  1  0  0  0
 14 42  1  0  0  0
 14 43  1  0  0  0
 15 44  1  0  0  0
 15 45  1  0  0  0
 15 46  1  0  0  0
 16 18  1  0  0  0
 16 17  1  0  0  0
 16 47  1  0  0  0
 17 19  2  0  0  0
 17 23  1  0  0  0
 18 48  1  0  0  0
 18 49  1  0  0  0
 18 50  1  0  0  0
 19 20  1  0  0  0
 19 51  1  0  0  0
 20 21  2  0  0  0
 20 52  1  0  0  0
 21 22  1  0  0  0
 21 53  1  0  0  0
 22 23  2  0  0  0
 22 54  1  0  0  0
 23 55  1  0  0  0
 24 25  1  0  0  0
 24 56  1  0  0  0
 24 57  1  0  0  0
 25 26  2  0  0  0
 25 30  1  0  0  0
 26 27  1  0  0  0
 26 58  1  0  0  0
 27 28  2  0  0  0
 27 59  1  0  0  0
 28 29  1  0  0  0
 28 60  1  0  0  0
 29 30  2  0  0  0
 29 61  1  0  0  0
 30 62  1  0  0  0
 31 32  1  0  0  0
 31 63  1  0  0  0
 31 64  1  0  0  0
 32 65  1  0  0  0
 32 66  1  0  0  0
 32 67  1  0  0  0
 33 34  1  0  0  0
 33 68  1  0  0  0
 33 69  1  0  0  0
 34 70  1  0  0  0
 34 71  1  0  0  0
 34 72  1  0  0  0
M  END
> <chembl_id>
CHEMBL188059

> <chembl_pref_name>
None

> <i_m_ct_stereo_status>
1

> <s_m_source_file>
sdf/inactives_sanitized.sdf

> <i_m_source_file_index>
284

> <i_lp_mmshare_version>
49012

> <i_f3d_flags>
0

> <s_epik_input>
W2NIXTFbY0hdW2NIXVtjSF1bY0hdYzFbQ0gyXUMoW0NIMl1bQ0gzXSkoW0NIMl1bQ0gzXSlPQyg9TylbTkhdW0NAQEhdKFtDSDJdW0NIMl1bQ0gyXVtDSDNdKUMoPU8pQyg9TylbTkhdW0NASF0oW0NIM10pYzJbY0hdW2NIXVtjSF1bY0hdW2NIXTI=

> <s_epik_cmdline>
J2VwaWtfcHl0aG9uJywgJy1waHQnLCAnMC41JywgJy1waCcsICc3LjUnLCAnLW50JywgJy1tYScsICcyMDAnLCAnLWltYWUnLCAnPGluZmlsZS5tYWU+JywgJy1vbWFlJywgJzxvdXRmaWxlLm1hZT4n

> <r_lp_tautomer_probability>
1

> <r_epik_Ionization_Penalty>
  0.0000

> <r_epik_Ionization_Penalty_Charging>
  0.0000

> <r_epik_Ionization_Penalty_Neutral>
  0.0000

> <r_epik_State_Penalty>
 -0.0000

> <r_epik_Charging_Adjusted_Penalty>
0

> <i_epik_Tot_Q>
0

> <i_epik_Tot_abs_Q>
0

> <s_epik_Chemistry_Notes>
This compound has an ester and may undergo hydrolysis at high or low pH.

> <s_lp_Force_Field>
OPLS3e

> <r_lp_Energy>
38.075174

> <b_lp_Chiralities_Consistent>
1

> <s_lp_Variant>
sdf/inactives_sanitized.sdf:284-1

$$$$
sdf/inactives_sanitized.sdf:285
                    3D
 Schrodinger Suite 2020-1.
 44 45  0  0  1  0            999 V2000
    4.5009    2.1390   -3.4303 C   0  0  0  0  0  0
    3.0110    1.9129   -3.2843 C   0  0  0  0  0  0
    3.8404    1.0180   -4.1885 C   0  0  0  0  0  0
   -1.6799    2.8692   -2.9515 C   0  0  0  0  0  0
   -1.3239    4.1244   -2.4632 C   0  0  0  0  0  0
   -0.8700    4.2721   -1.1548 C   0  0  0  0  0  0
   -0.7772    3.1577   -0.3258 C   0  0  0  0  0  0
   -1.1355    1.8940   -0.8050 C   0  0  0  0  0  0
   -1.5859    1.7541   -2.1237 C   0  0  0  0  0  0
   -1.0500    0.6845    0.1327 C   0  0  2  0  0  0
   -0.1784   -0.3740   -0.3874 N   0  0  1  0  0  0
    1.2766   -0.1049   -0.5018 C   0  0  2  0  0  0
    1.6346    0.3620   -1.9324 C   0  0  0  0  0  0
    2.5259    1.3631   -2.0221 N   0  0  0  0  0  0
    1.1383   -0.1979   -2.9116 O   0  0  0  0  0  0
    2.0947    2.8549   -3.9504 C   0  0  0  0  0  0
    1.3780    3.5954   -4.4761 N   0  0  0  0  0  0
    2.1812   -1.2804   -0.0374 C   0  0  0  0  0  0
   -2.4393    0.0899    0.4824 C   0  0  0  0  0  0
   -2.3329   -0.8857    1.3869 F   0  0  0  0  0  0
   -3.2376    1.0194    1.0092 F   0  0  0  0  0  0
   -3.0685   -0.4219   -0.5773 F   0  0  0  0  0  0
    1.4482   -3.0180   -0.2412 S   0  0  0  0  0  0
    2.8538   -4.1538    0.2920 C   0  0  0  0  0  0
    0.3548   -3.1724    0.7243 O   0  0  0  0  0  0
    1.2012   -3.2467   -1.6683 O   0  0  0  0  0  0
   -1.4167    5.2082   -3.2663 F   0  0  0  0  0  0
    4.8478    3.0115   -3.9849 H   0  0  0  0  0  0
    5.1618    1.8841   -2.6011 H   0  0  0  0  0  0
    4.0427   -0.0089   -3.8812 H   0  0  0  0  0  0
    3.7274    1.1130   -5.2689 H   0  0  0  0  0  0
   -2.0246    2.7607   -3.9692 H   0  0  0  0  0  0
   -0.5945    5.2481   -0.7835 H   0  0  0  0  0  0
   -0.4309    3.2806    0.6901 H   0  0  0  0  0  0
   -1.8582    0.7826   -2.5097 H   0  0  0  0  0  0
   -0.6100    1.0122    1.0763 H   0  0  0  0  0  0
   -0.4209   -1.2997   -0.0607 H   0  0  0  0  0  0
    1.5114    0.7159    0.1808 H   0  0  0  0  0  0
    2.8342    1.8222   -1.1776 H   0  0  0  0  0  0
    3.1166   -1.3036   -0.5991 H   0  0  0  0  0  0
    2.4800   -1.1552    1.0035 H   0  0  0  0  0  0
    2.5224   -5.1882    0.2060 H   0  0  0  0  0  0
    3.1166   -3.9309    1.3254 H   0  0  0  0  0  0
    3.7123   -3.9830   -0.3568 H   0  0  0  0  0  0
  1  2  1  0  0  0
  1  3  1  0  0  0
  1 28  1  0  0  0
  1 29  1  0  0  0
  2  3  1  0  0  0
  2 14  1  0  0  0
  2 16  1  0  0  0
  3 30  1  0  0  0
  3 31  1  0  0  0
  4  5  2  0  0  0
  4  9  1  0  0  0
  4 32  1  0  0  0
  5  6  1  0  0  0
  5 27  1  0  0  0
  6  7  2  0  0  0
  6 33  1  0  0  0
  7  8  1  0  0  0
  7 34  1  0  0  0
  8  9  2  0  0  0
  8 10  1  0  0  0
  9 35  1  0  0  0
 10 11  1  0  0  0
 10 19  1  0  0  0
 10 36  1  0  0  0
 11 12  1  0  0  0
 11 37  1  0  0  0
 12 13  1  0  0  0
 12 18  1  0  0  0
 12 38  1  0  0  0
 13 14  1  0  0  0
 13 15  2  0  0  0
 14 39  1  0  0  0
 16 17  3  0  0  0
 18 23  1  0  0  0
 18 40  1  0  0  0
 18 41  1  0  0  0
 19 20  1  0  0  0
 19 21  1  0  0  0
 19 22  1  0  0  0
 23 24  1  0  0  0
 23 25  2  0  0  0
 23 26  2  0  0  0
 24 42  1  0  0  0
 24 43  1  0  0  0
 24 44  1  0  0  0
M  END
> <chembl_id>
CHEMBL249915

> <chembl_pref_name>
None

> <i_m_ct_stereo_status>
1

> <s_m_source_file>
sdf/inactives_sanitized.sdf

> <i_m_source_file_index>
285

> <i_lp_mmshare_version>
49012

> <i_f3d_flags>
0

> <s_epik_input>
W0NIMl0xW0NIMl1DMShDI04pW05IXUMoPU8pW0NASF0oW0NIMl1TKD1PKSg9TylbQ0gzXSlbTkhdW0NASF0oQyhGKShGKUYpYyhbY0hdW2NIXTIpW2NIXVtjSF1jMkY=

> <s_epik_cmdline>
J2VwaWtfcHl0aG9uJywgJy1waHQnLCAnMC41JywgJy1waCcsICc3LjUnLCAnLW50JywgJy1tYScsICcyMDAnLCAnLWltYWUnLCAnPGluZmlsZS5tYWU+JywgJy1vbWFlJywgJzxvdXRmaWxlLm1hZT4n

> <r_lp_tautomer_probability>
1

> <r_epik_Ionization_Penalty>
  0.0002

> <r_epik_Ionization_Penalty_Charging>
  0.0000

> <r_epik_Ionization_Penalty_Neutral>
  0.0002

> <r_epik_State_Penalty>
 -0.0000

> <r_epik_Charging_Adjusted_Penalty>
0

> <i_epik_Tot_Q>
0

> <i_epik_Tot_abs_Q>
0

> <s_lp_Force_Field>
OPLS3e

> <r_lp_Energy>
18.429258

> <b_lp_Chiralities_Consistent>
1

> <s_lp_Variant>
sdf/inactives_sanitized.sdf:285-1

$$$$
sdf/inactives_sanitized.sdf:286
                    3D
 Schrodinger Suite 2020-1.
 35 37  0  0  1  0            999 V2000
    4.4498   -0.7229    2.6480 O   0  0  0  0  0  0
    3.9987   -0.2535    1.3329 S   0  0  0  0  0  0
    4.3782   -0.9834    0.1168 O   0  0  0  0  0  0
   -7.1108    0.3447    0.0045 C   0  0  0  0  0  0
   -6.6262   -0.5154    0.9899 C   0  0  0  0  0  0
   -5.2587   -0.7564    1.1340 C   0  0  0  0  0  0
   -6.2484    0.9985   -0.8762 C   0  0  0  0  0  0
   -4.8732    0.7640   -0.7399 C   0  0  0  0  0  0
   -4.3715   -0.1088    0.2600 C   0  0  0  0  0  0
   -3.0192   -0.2424    0.2806 N   0  0  0  0  0  0
   -2.4413    0.4771   -0.6447 C   0  0  0  0  0  0
   -3.5223    1.4075   -1.6597 S   0  0  0  0  0  0
   -0.7002    0.5700   -0.9254 S   0  0  0  0  0  0
   -0.0820   -0.5236    0.3900 C   0  0  0  0  0  0
    1.4309   -0.6148    0.4285 C   0  0  0  0  0  0
    2.2072   -0.0875    1.3923 C   0  0  0  0  0  0
    4.5559    1.4392    1.1429 C   0  0  0  0  0  0
    4.7649    1.9641   -0.1353 C   0  0  0  0  0  0
    5.1945    3.2807   -0.2805 C   0  0  0  0  0  0
    5.4119    4.0651    0.8506 C   0  0  0  0  0  0
    5.2038    3.5456    2.1269 C   0  0  0  0  0  0
    4.7749    2.2292    2.2747 C   0  0  0  0  0  0
   -8.1756    0.5072   -0.0779 H   0  0  0  0  0  0
   -7.3239   -1.0046    1.6542 H   0  0  0  0  0  0
   -4.8990   -1.4260    1.9013 H   0  0  0  0  0  0
   -6.6314    1.6632   -1.6367 H   0  0  0  0  0  0
   -0.4666   -0.1700    1.3486 H   0  0  0  0  0  0
   -0.4813   -1.5259    0.2322 H   0  0  0  0  0  0
    1.8822   -1.1541   -0.3918 H   0  0  0  0  0  0
    1.8062    0.4571    2.2340 H   0  0  0  0  0  0
    4.5947    1.3594   -1.0140 H   0  0  0  0  0  0
    5.3576    3.6918   -1.2659 H   0  0  0  0  0  0
    5.7442    5.0866    0.7368 H   0  0  0  0  0  0
    5.3737    4.1614    2.9978 H   0  0  0  0  0  0
    4.6112    1.8293    3.2648 H   0  0  0  0  0  0
  1  2  2  0  0  0
  2  3  2  0  0  0
  2 16  1  0  0  0
  2 17  1  0  0  0
  4  5  2  0  0  0
  4  7  1  0  0  0
  4 23  1  0  0  0
  5  6  1  0  0  0
  5 24  1  0  0  0
  6  9  2  0  0  0
  6 25  1  0  0  0
  7  8  2  0  0  0
  7 26  1  0  0  0
  8  9  1  0  0  0
  8 12  1  0  0  0
  9 10  1  0  0  0
 10 11  2  0  0  0
 11 12  1  0  0  0
 11 13  1  0  0  0
 13 14  1  0  0  0
 14 15  1  0  0  0
 14 27  1  0  0  0
 14 28  1  0  0  0
 15 16  2  0  0  0
 15 29  1  0  0  0
 16 30  1  0  0  0
 17 18  2  0  0  0
 17 22  1  0  0  0
 18 19  1  0  0  0
 18 31  1  0  0  0
 19 20  2  0  0  0
 19 32  1  0  0  0
 20 21  1  0  0  0
 20 33  1  0  0  0
 21 22  2  0  0  0
 21 34  1  0  0  0
 22 35  1  0  0  0
M  END
> <chembl_id>
CHEMBL2316615

> <chembl_pref_name>
None

> <s_m_source_file>
sdf/inactives_sanitized.sdf

> <i_m_source_file_index>
286

> <i_lp_mmshare_version>
49012

> <i_m_ct_stereo_status>
1

> <i_f3d_flags>
0

> <s_epik_input>
W2NIXTFbY0hdW2NIXVtjSF1bY0hdYzFTKD1PKSg9TylcW0NIXT1bQ0hdXFtDSDJdU2MoczIpbmMoYzIzKVtjSF1bY0hdW2NIXVtjSF0z

> <s_epik_cmdline>
J2VwaWtfcHl0aG9uJywgJy1waHQnLCAnMC41JywgJy1waCcsICc3LjUnLCAnLW50JywgJy1tYScsICcyMDAnLCAnLWltYWUnLCAnPGluZmlsZS5tYWU+JywgJy1vbWFlJywgJzxvdXRmaWxlLm1hZT4n

> <r_lp_tautomer_probability>
1

> <r_epik_Ionization_Penalty>
  0.0000

> <r_epik_Ionization_Penalty_Charging>
  0.0000

> <r_epik_Ionization_Penalty_Neutral>
  0.0000

> <r_epik_State_Penalty>
 -0.0000

> <r_epik_Charging_Adjusted_Penalty>
0

> <i_epik_Tot_Q>
0

> <i_epik_Tot_abs_Q>
0

> <s_lp_Force_Field>
OPLS3e

> <r_lp_Energy>
18.833556

> <b_lp_Chiralities_Consistent>
1

> <s_lp_Variant>
sdf/inactives_sanitized.sdf:286-1

$$$$
sdf/inactives_sanitized.sdf:287
                    3D
 Schrodinger Suite 2020-1.
 41 42  0  0  1  0            999 V2000
    3.9777   -3.3208   -1.1317 S   0  0  0  0  0  0
   -1.1972   -1.5192   -5.5828 O   0  0  0  0  0  0
   -0.1378   -1.0474    0.7411 N   0  0  0  0  0  0
    1.9865   -0.1039    1.2461 N   0  0  0  0  0  0
    1.8539   -2.0814   -0.1060 N   0  0  0  0  0  0
    3.9935   -1.1084    0.4024 N   0  0  0  0  0  0
    4.1173    0.8618    1.7556 N   0  0  0  0  0  0
   -1.3137    0.4605    2.3610 N   0  0  0  0  0  0
    1.2741   -1.0854    0.6228 C   0  0  0  0  0  0
    3.3445   -0.1441    1.1161 C   0  0  0  0  0  0
    3.2058   -2.0441   -0.1848 C   0  0  0  0  0  0
   -0.9693   -2.0722    0.0955 C   0  0  0  0  0  0
   -1.0213   -1.9331   -1.4255 C   0  0  0  0  0  0
   -0.7455   -0.2332    1.6292 C   0  0  0  0  0  0
   -1.2282   -0.6885   -2.0281 C   0  0  0  0  0  0
   -0.8823   -3.0718   -2.2207 C   0  0  0  0  0  0
   -1.1325   -1.7183   -4.2170 C   0  0  0  0  0  0
   -1.2797   -0.5859   -3.4152 C   0  0  0  0  0  0
   -0.9338   -2.9677   -3.6080 C   0  0  0  0  0  0
    5.5521    0.9680    1.4883 C   0  0  0  0  0  0
    3.4607    2.0144    2.3739 C   0  0  0  0  0  0
    5.7697   -3.0363   -1.0700 C   0  0  0  0  0  0
   -1.0536   -2.6351   -6.4551 C   0  0  0  0  0  0
   -0.6029   -3.0603    0.3792 H   0  0  0  0  0  0
   -1.9902   -2.0208    0.4777 H   0  0  0  0  0  0
   -1.3482    0.2003   -1.4257 H   0  0  0  0  0  0
   -0.7280   -4.0400   -1.7668 H   0  0  0  0  0  0
   -1.4361    0.3809   -3.8714 H   0  0  0  0  0  0
   -0.8175   -3.8670   -4.1937 H   0  0  0  0  0  0
    6.0418   -0.0046    1.5496 H   0  0  0  0  0  0
    6.0455    1.6366    2.1945 H   0  0  0  0  0  0
    5.7156    1.3528    0.4811 H   0  0  0  0  0  0
    2.6019    1.7119    2.9744 H   0  0  0  0  0  0
    3.0974    2.6937    1.6022 H   0  0  0  0  0  0
    4.1430    2.5656    3.0219 H   0  0  0  0  0  0
    6.2908   -3.8041   -1.6416 H   0  0  0  0  0  0
    6.1268   -3.0718   -0.0405 H   0  0  0  0  0  0
    6.0170   -2.0632   -1.4949 H   0  0  0  0  0  0
   -1.1302   -2.2965   -7.4884 H   0  0  0  0  0  0
   -1.8393   -3.3744   -6.2917 H   0  0  0  0  0  0
   -0.0805   -3.1140   -6.3360 H   0  0  0  0  0  0
  1 11  1  0  0  0
  1 22  1  0  0  0
  2 17  1  0  0  0
  2 23  1  0  0  0
  3  9  1  0  0  0
  3 12  1  0  0  0
  3 14  1  0  0  0
  4  9  2  0  0  0
  4 10  1  0  0  0
  5  9  1  0  0  0
  5 11  2  0  0  0
  6 10  2  0  0  0
  6 11  1  0  0  0
  7 10  1  0  0  0
  7 20  1  0  0  0
  7 21  1  0  0  0
  8 14  3  0  0  0
 12 13  1  0  0  0
 12 24  1  0  0  0
 12 25  1  0  0  0
 13 15  2  0  0  0
 13 16  1  0  0  0
 15 18  1  0  0  0
 15 26  1  0  0  0
 16 19  2  0  0  0
 16 27  1  0  0  0
 17 18  2  0  0  0
 17 19  1  0  0  0
 18 28  1  0  0  0
 19 29  1  0  0  0
 20 30  1  0  0  0
 20 31  1  0  0  0
 20 32  1  0  0  0
 21 33  1  0  0  0
 21 34  1  0  0  0
 21 35  1  0  0  0
 22 36  1  0  0  0
 22 37  1  0  0  0
 22 38  1  0  0  0
 23 39  1  0  0  0
 23 40  1  0  0  0
 23 41  1  0  0  0
M  END
> <chembl_id>
CHEMBL1319029

> <chembl_pref_name>
None

> <s_m_source_file>
sdf/inactives_sanitized.sdf

> <i_m_source_file_index>
287

> <i_lp_mmshare_version>
49012

> <i_m_ct_stereo_status>
1

> <i_f3d_flags>
0

> <s_epik_input>
W0NIM11TYyhuMSluYyhOKFtDSDNdKVtDSDNdKW5jMU4oQyNOKVtDSDJdYzJbY0hdW2NIXWMoT1tDSDNdKVtjSF1bY0hdMg==

> <s_epik_cmdline>
J2VwaWtfcHl0aG9uJywgJy1waHQnLCAnMC41JywgJy1waCcsICc3LjUnLCAnLW50JywgJy1tYScsICcyMDAnLCAnLWltYWUnLCAnPGluZmlsZS5tYWU+JywgJy1vbWFlJywgJzxvdXRmaWxlLm1hZT4n

> <r_lp_tautomer_probability>
1

> <r_epik_Ionization_Penalty>
  0.0003

> <r_epik_Ionization_Penalty_Charging>
  0.0000

> <r_epik_Ionization_Penalty_Neutral>
  0.0003

> <r_epik_State_Penalty>
 -0.0000

> <r_epik_Charging_Adjusted_Penalty>
0

> <i_epik_Tot_Q>
0

> <i_epik_Tot_abs_Q>
0

> <s_lp_Force_Field>
OPLS3e

> <r_lp_Energy>
29.589468

> <b_lp_Chiralities_Consistent>
1

> <s_lp_Variant>
sdf/inactives_sanitized.sdf:287-1

$$$$
sdf/inactives_sanitized.sdf:288
                    3D
 Schrodinger Suite 2020-1.
 59 61  0  0  1  0            999 V2000
   -0.2755    0.0624    0.0939 C   0  0  2  0  0  0
   -0.9780   -0.6984   -1.0531 C   0  0  0  0  0  0
   -0.7016    1.5376    0.0990 C   0  0  0  0  0  0
   -1.3733   -4.2579   -2.6792 N   0  0  0  0  0  0
   -0.3183    2.4069   -0.9320 C   0  0  0  0  0  0
   -0.7107    3.7540   -0.9434 C   0  0  0  0  0  0
   -1.9951   -3.3909   -2.2313 C   0  0  0  0  0  0
   -0.1764    6.9938   -6.5310 N   0  3  0  0  0  0
   -0.3121    4.6603   -2.0634 C   0  0  0  0  0  0
    0.4157    6.3340   -4.2038 C   0  0  0  0  0  0
    1.2686   -0.1307    0.0566 C   0  0  0  0  0  0
   -0.5859   -0.5775   -2.2151 O   0  0  0  0  0  0
    0.8145    7.2273   -5.3756 C   0  0  2  0  0  0
   -1.1714    5.6763   -2.5029 C   0  0  0  0  0  0
    0.9240    4.5071   -2.7061 C   0  0  0  0  0  0
    1.2867    5.3353   -3.7644 C   0  0  0  0  0  0
   -0.8136    6.5060   -3.5616 C   0  0  0  0  0  0
    1.1560    9.4891   -6.2261 O   0  0  0  0  0  0
   -2.0252   -1.4723   -0.7176 N   0  0  0  0  0  0
   -2.7872   -2.2870   -1.6603 C   0  0  0  0  0  0
   -1.4889    2.0327    1.1431 C   0  0  0  0  0  0
    0.8603    8.7388   -5.0512 C   0  0  0  0  0  0
   -1.4970    4.2190    0.1208 C   0  0  0  0  0  0
   -1.8822    3.3683    1.1552 C   0  0  0  0  0  0
    0.0836    7.9060   -7.7416 C   0  0  0  0  0  0
    2.0662    0.5567    1.1954 C   0  0  0  0  0  0
    0.1830    9.3664   -7.2599 C   0  0  0  0  0  0
    3.5820    0.4045    0.9719 C   0  0  0  0  0  0
    1.6700    0.0521    2.5970 C   0  0  0  0  0  0
   -0.6230   -0.3862    1.0264 H   0  0  0  0  0  0
    0.2781    2.0174   -1.7441 H   0  0  0  0  0  0
   -0.1436    6.0233   -6.8098 H   0  0  0  0  0  0
    1.4944   -1.1990    0.0730 H   0  0  0  0  0  0
    1.6547    0.2267   -0.9002 H   0  0  0  0  0  0
    1.7739    6.8964   -5.7788 H   0  0  0  0  0  0
   -2.1353    5.8197   -2.0370 H   0  0  0  0  0  0
    1.6184    3.7442   -2.3857 H   0  0  0  0  0  0
    2.2454    5.1921   -4.2417 H   0  0  0  0  0  0
   -1.5002    7.2746   -3.8857 H   0  0  0  0  0  0
   -2.2695   -1.5640    0.2574 H   0  0  0  0  0  0
   -3.1782   -1.6750   -2.4751 H   0  0  0  0  0  0
   -3.6447   -2.7185   -1.1441 H   0  0  0  0  0  0
   -1.7975    1.3849    1.9507 H   0  0  0  0  0  0
    1.6349    8.9386   -4.3100 H   0  0  0  0  0  0
   -0.0793    9.0890   -4.6200 H   0  0  0  0  0  0
   -1.8121    5.2516    0.1591 H   0  0  0  0  0  0
   -2.4871    3.7453    1.9668 H   0  0  0  0  0  0
    1.0117    7.5524   -8.1931 H   0  0  0  0  0  0
   -0.7425    7.7394   -8.4336 H   0  0  0  0  0  0
    1.8510    1.6257    1.1626 H   0  0  0  0  0  0
   -0.7859    9.7284   -6.9104 H   0  0  0  0  0  0
    0.4735   10.0122   -8.0889 H   0  0  0  0  0  0
    3.8857   -0.6429    0.9944 H   0  0  0  0  0  0
    4.1506    0.9306    1.7396 H   0  0  0  0  0  0
    3.8835    0.8161    0.0080 H   0  0  0  0  0  0
    1.8099   -1.0257    2.6873 H   0  0  0  0  0  0
    0.6283    0.2743    2.8271 H   0  0  0  0  0  0
    2.2712    0.5290    3.3720 H   0  0  0  0  0  0
   -1.1117    7.1533   -6.1844 H   0  0  0  0  0  0
  1  2  1  0  0  0
  1  3  1  0  0  0
  1 11  1  0  0  0
  1 30  1  0  0  0
  2 12  2  0  0  0
  2 19  1  0  0  0
  3  5  2  0  0  0
  3 21  1  0  0  0
  4  7  3  0  0  0
  5  6  1  0  0  0
  5 31  1  0  0  0
  6  9  1  0  0  0
  6 23  2  0  0  0
  7 20  1  0  0  0
  8 13  1  0  0  0
  8 25  1  0  0  0
  8 32  1  0  0  0
  8 59  1  0  0  0
  9 14  2  0  0  0
  9 15  1  0  0  0
 10 16  1  0  0  0
 10 13  1  0  0  0
 10 17  2  0  0  0
 11 26  1  0  0  0
 11 33  1  0  0  0
 11 34  1  0  0  0
 13 22  1  0  0  0
 13 35  1  0  0  0
 14 17  1  0  0  0
 14 36  1  0  0  0
 15 16  2  0  0  0
 15 37  1  0  0  0
 16 38  1  0  0  0
 17 39  1  0  0  0
 18 22  1  0  0  0
 18 27  1  0  0  0
 19 20  1  0  0  0
 19 40  1  0  0  0
 20 41  1  0  0  0
 20 42  1  0  0  0
 21 24  2  0  0  0
 21 43  1  0  0  0
 22 44  1  0  0  0
 22 45  1  0  0  0
 23 24  1  0  0  0
 23 46  1  0  0  0
 24 47  1  0  0  0
 25 27  1  0  0  0
 25 48  1  0  0  0
 25 49  1  0  0  0
 26 28  1  0  0  0
 26 29  1  0  0  0
 26 50  1  0  0  0
 27 51  1  0  0  0
 27 52  1  0  0  0
 28 53  1  0  0  0
 28 54  1  0  0  0
 28 55  1  0  0  0
 29 56  1  0  0  0
 29 57  1  0  0  0
 29 58  1  0  0  0
M  CHG  1   8   1
M  END
> <chembl_id>
CHEMBL421457

> <chembl_pref_name>
None

> <s_m_source_file>
sdf/inactives_sanitized.sdf

> <i_m_source_file_index>
288

> <i_lp_mmshare_version>
49012

> <i_m_ct_stereo_status>
1

> <i_f3d_flags>
0

> <s_epik_input>
TiNDW0NIMl1bTkhdQyg9TylbQ0BASF0oW0NIMl1bQ0hdKFtDSDNdKVtDSDNdKWMxW2NIXWMoW2NIXVtjSF1bY0hdMSktYzJbY0hdW2NIXWMoW2NIXVtjSF0yKVtDQEhdM1tOSF1bQ0gyXVtDSDJdT1tDSDJdMw==

> <s_epik_cmdline>
J2VwaWtfcHl0aG9uJywgJy1waHQnLCAnMC41JywgJy1waCcsICc3LjUnLCAnLW50JywgJy1tYScsICcyMDAnLCAnLWltYWUnLCAnPGluZmlsZS5tYWU+JywgJy1vbWFlJywgJzxvdXRmaWxlLm1hZT4n

> <r_epik_Ionization_Penalty>
  0.2669

> <r_epik_Ionization_Penalty_Charging>
  0.2669

> <r_epik_Ionization_Penalty_Neutral>
  0.0000

> <r_epik_State_Penalty>
  0.2589

> <r_epik_Charging_Adjusted_Penalty>
0.525856133576072

> <i_epik_Tot_Q>
1

> <i_epik_Tot_abs_Q>
1

> <s_lp_Force_Field>
OPLS3e

> <r_lp_Energy>
33.432933

> <b_lp_Chiralities_Consistent>
1

> <s_lp_Variant>
sdf/inactives_sanitized.sdf:288-1

$$$$
sdf/inactives_sanitized.sdf:288
                    3D
 Schrodinger Suite 2020-1.
 58 60  0  0  1  0            999 V2000
   -0.0491   -0.1006    0.1210 C   0  0  2  0  0  0
   -0.6143   -1.0040   -0.9974 C   0  0  0  0  0  0
   -0.6284    1.3162    0.0012 C   0  0  0  0  0  0
   -0.4573   -4.6462   -2.4794 N   0  0  0  0  0  0
   -0.2256    2.1821   -1.0255 C   0  0  0  0  0  0
   -0.7571    3.4750   -1.1488 C   0  0  0  0  0  0
   -1.2057   -3.8640   -2.0704 C   0  0  0  0  0  0
    1.5556    6.4654   -6.6044 N   0  0  1  0  0  0
   -0.3257    4.3847   -2.2547 C   0  0  0  0  0  0
    0.4664    6.1027   -4.3449 C   0  0  0  0  0  0
    1.5068   -0.1381    0.1611 C   0  0  0  0  0  0
   -0.2279   -0.8733   -2.1603 O   0  0  0  0  0  0
    0.8730    7.0769   -5.4578 C   0  0  2  0  0  0
    0.0174    3.8729   -3.5134 C   0  0  0  0  0  0
   -0.2614    5.7707   -2.0604 C   0  0  0  0  0  0
    0.1290    6.6193   -3.0919 C   0  0  0  0  0  0
    0.4075    4.7188   -4.5482 C   0  0  0  0  0  0
    0.1153    8.8922   -6.8987 O   0  0  0  0  0  0
   -1.5384   -1.9119   -0.6366 N   0  0  0  0  0  0
   -2.1593   -2.8684   -1.5491 C   0  0  0  0  0  0
   -1.5865    1.7554    0.9198 C   0  0  0  0  0  0
   -0.3272    7.9271   -5.9499 C   0  0  0  0  0  0
   -1.7109    3.8861   -0.2058 C   0  0  0  0  0  0
   -2.1232    3.0360    0.8184 C   0  0  0  0  0  0
    1.9133    7.4291   -7.6442 C   0  0  0  0  0  0
    2.1804    0.7243    1.2603 C   0  0  0  0  0  0
    0.6996    8.2923   -8.0496 C   0  0  0  0  0  0
    3.7136    0.6834    1.1247 C   0  0  0  0  0  0
    1.7496    0.3270    2.6862 C   0  0  0  0  0  0
   -0.3919   -0.5170    1.0702 H   0  0  0  0  0  0
    0.5162    1.8403   -1.7322 H   0  0  0  0  0  0
    2.3530    5.9232   -6.3034 H   0  0  0  0  0  0
    1.8316   -1.1730    0.2877 H   0  0  0  0  0  0
    1.9037    0.1672   -0.8091 H   0  0  0  0  0  0
    1.6087    7.7351   -4.9917 H   0  0  0  0  0  0
   -0.0314    2.8113   -3.7069 H   0  0  0  0  0  0
   -0.5070    6.2035   -1.1018 H   0  0  0  0  0  0
    0.1701    7.6841   -2.9130 H   0  0  0  0  0  0
    0.6506    4.2865   -5.5076 H   0  0  0  0  0  0
   -1.7792   -1.9996    0.3400 H   0  0  0  0  0  0
   -2.6279   -2.3536   -2.3897 H   0  0  0  0  0  0
   -2.9488   -3.4022   -1.0200 H   0  0  0  0  0  0
   -1.9178    1.1064    1.7173 H   0  0  0  0  0  0
   -0.7838    8.4642   -5.1180 H   0  0  0  0  0  0
   -1.1096    7.2987   -6.3809 H   0  0  0  0  0  0
   -2.1545    4.8689   -0.2681 H   0  0  0  0  0  0
   -2.8630    3.3690    1.5313 H   0  0  0  0  0  0
    2.7256    8.0620   -7.2846 H   0  0  0  0  0  0
    2.2924    6.8862   -8.5102 H   0  0  0  0  0  0
    1.8805    1.7622    1.1084 H   0  0  0  0  0  0
   -0.0416    7.6979   -8.5874 H   0  0  0  0  0  0
    1.0167    9.0820   -8.7309 H   0  0  0  0  0  0
    4.1009   -0.3258    1.2712 H   0  0  0  0  0  0
    4.1939    1.3320    1.8581 H   0  0  0  0  0  0
    4.0331    1.0205    0.1380 H   0  0  0  0  0  0
    1.9670   -0.7218    2.8917 H   0  0  0  0  0  0
    0.6827    0.4843    2.8433 H   0  0  0  0  0  0
    2.2690    0.9249    3.4358 H   0  0  0  0  0  0
  1  2  1  0  0  0
  1  3  1  0  0  0
  1 11  1  0  0  0
  1 30  1  0  0  0
  2 12  2  0  0  0
  2 19  1  0  0  0
  3  5  2  0  0  0
  3 21  1  0  0  0
  4  7  3  0  0  0
  5  6  1  0  0  0
  5 31  1  0  0  0
  6  9  1  0  0  0
  6 23  2  0  0  0
  7 20  1  0  0  0
  8 13  1  0  0  0
  8 25  1  0  0  0
  8 32  1  0  0  0
  9 14  2  0  0  0
  9 15  1  0  0  0
 10 16  1  0  0  0
 10 13  1  0  0  0
 10 17  2  0  0  0
 11 26  1  0  0  0
 11 33  1  0  0  0
 11 34  1  0  0  0
 13 22  1  0  0  0
 13 35  1  0  0  0
 14 17  1  0  0  0
 14 36  1  0  0  0
 15 16  2  0  0  0
 15 37  1  0  0  0
 16 38  1  0  0  0
 17 39  1  0  0  0
 18 22  1  0  0  0
 18 27  1  0  0  0
 19 20  1  0  0  0
 19 40  1  0  0  0
 20 41  1  0  0  0
 20 42  1  0  0  0
 21 24  2  0  0  0
 21 43  1  0  0  0
 22 44  1  0  0  0
 22 45  1  0  0  0
 23 24  1  0  0  0
 23 46  1  0  0  0
 24 47  1  0  0  0
 25 27  1  0  0  0
 25 48  1  0  0  0
 25 49  1  0  0  0
 26 28  1  0  0  0
 26 29  1  0  0  0
 26 50  1  0  0  0
 27 51  1  0  0  0
 27 52  1  0  0  0
 28 53  1  0  0  0
 28 54  1  0  0  0
 28 55  1  0  0  0
 29 56  1  0  0  0
 29 57  1  0  0  0
 29 58  1  0  0  0
M  END
> <chembl_id>
CHEMBL421457

> <chembl_pref_name>
None

> <s_m_source_file>
sdf/inactives_sanitized.sdf

> <i_m_source_file_index>
288

> <i_lp_mmshare_version>
49012

> <i_m_ct_stereo_status>
1

> <i_f3d_flags>
0

> <s_epik_input>
TiNDW0NIMl1bTkhdQyg9TylbQ0BASF0oW0NIMl1bQ0hdKFtDSDNdKVtDSDNdKWMxW2NIXWMoW2NIXVtjSF1bY0hdMSktYzJbY0hdW2NIXWMoW2NIXVtjSF0yKVtDQEhdM1tOSF1bQ0gyXVtDSDJdT1tDSDJdMw==

> <s_epik_cmdline>
J2VwaWtfcHl0aG9uJywgJy1waHQnLCAnMC41JywgJy1waCcsICc3LjUnLCAnLW50JywgJy1tYScsICcyMDAnLCAnLWltYWUnLCAnPGluZmlsZS5tYWU+JywgJy1vbWFlJywgJzxvdXRmaWxlLm1hZT4n

> <r_epik_Ionization_Penalty>
  0.6009

> <r_epik_Ionization_Penalty_Charging>
  0.0000

> <r_epik_Ionization_Penalty_Neutral>
  0.6009

> <r_epik_State_Penalty>
  0.6152

> <r_epik_Charging_Adjusted_Penalty>
0.61522714656231

> <i_epik_Tot_Q>
0

> <i_epik_Tot_abs_Q>
0

> <s_lp_Force_Field>
OPLS3e

> <r_lp_Energy>
39.768441

> <b_lp_Chiralities_Consistent>
1

> <s_lp_Variant>
sdf/inactives_sanitized.sdf:288-2

$$$$
sdf/inactives_sanitized.sdf:289
                    3D
 Schrodinger Suite 2020-1.
 29 30  0  0  1  0            999 V2000
   -0.6498   -1.1388    0.0475 C   0  0  0  0  0  0
   -0.0085    0.1005   -0.0741 C   0  0  0  0  0  0
   -0.7160    1.2670   -0.1107 N   0  0  0  0  0  0
   -2.0663    1.1591   -0.0175 C   0  0  0  0  0  0
   -2.7773    0.0091    0.1031 N   0  0  0  0  0  0
   -2.0454   -1.1353    0.1330 C   0  0  0  0  0  0
   -2.8246    2.3979   -0.0472 C   0  0  0  0  0  0
   -3.4288    3.3849   -0.0706 N   0  0  0  0  0  0
    1.3940    0.1158   -0.1657 N   0  0  0  0  0  0
    2.1689    1.3556   -0.0962 C   0  0  0  0  0  0
    3.5199    1.1360   -0.8124 C   0  0  0  0  0  0
    4.4334    2.3715   -0.6852 C   0  0  0  0  0  0
    4.6303    2.7926    0.7856 C   0  0  0  0  0  0
    3.2867    2.9853    1.5181 C   0  0  0  0  0  0
    2.3762    1.7480    1.3861 C   0  0  0  0  0  0
   -0.0956   -2.0661    0.0739 H   0  0  0  0  0  0
   -2.5962   -2.0597    0.2270 H   0  0  0  0  0  0
    1.8777   -0.7425    0.0551 H   0  0  0  0  0  0
    1.6153    2.1530   -0.5947 H   0  0  0  0  0  0
    4.0326    0.2656   -0.3980 H   0  0  0  0  0  0
    3.3528    0.9184   -1.8685 H   0  0  0  0  0  0
    5.4008    2.1673   -1.1455 H   0  0  0  0  0  0
    3.9998    3.2017   -1.2449 H   0  0  0  0  0  0
    5.2169    2.0323    1.3035 H   0  0  0  0  0  0
    5.2151    3.7119    0.8336 H   0  0  0  0  0  0
    3.4655    3.2044    2.5714 H   0  0  0  0  0  0
    2.7736    3.8574    1.1097 H   0  0  0  0  0  0
    1.4157    1.9579    1.8594 H   0  0  0  0  0  0
    2.8144    0.9162    1.9409 H   0  0  0  0  0  0
  1  6  2  0  0  0
  1  2  1  0  0  0
  1 16  1  0  0  0
  2  9  1  0  0  0
  2  3  2  0  0  0
  3  4  1  0  0  0
  4  5  2  0  0  0
  4  7  1  0  0  0
  5  6  1  0  0  0
  6 17  1  0  0  0
  7  8  3  0  0  0
  9 10  1  0  0  0
  9 18  1  0  0  0
 10 11  1  0  0  0
 10 15  1  0  0  0
 10 19  1  0  0  0
 11 12  1  0  0  0
 11 20  1  0  0  0
 11 21  1  0  0  0
 12 13  1  0  0  0
 12 22  1  0  0  0
 12 23  1  0  0  0
 13 14  1  0  0  0
 13 24  1  0  0  0
 13 25  1  0  0  0
 14 15  1  0  0  0
 14 26  1  0  0  0
 14 27  1  0  0  0
 15 28  1  0  0  0
 15 29  1  0  0  0
M  END
> <chembl_id>
CHEMBL221591

> <chembl_pref_name>
None

> <s_m_source_file>
sdf/inactives_sanitized.sdf

> <i_m_source_file_index>
289

> <i_lp_mmshare_version>
49012

> <i_m_ct_stereo_status>
1

> <i_f3d_flags>
0

> <s_epik_input>
TiNDYyhuMSluW2NIXVtjSF1jMVtOSF1bQ0hdMltDSDJdW0NIMl1bQ0gyXVtDSDJdW0NIMl0y

> <s_epik_cmdline>
J2VwaWtfcHl0aG9uJywgJy1waHQnLCAnMC41JywgJy1waCcsICc3LjUnLCAnLW50JywgJy1tYScsICcyMDAnLCAnLWltYWUnLCAnPGluZmlsZS5tYWU+JywgJy1vbWFlJywgJzxvdXRmaWxlLm1hZT4n

> <r_lp_tautomer_probability>
1

> <r_epik_Ionization_Penalty>
  0.0000

> <r_epik_Ionization_Penalty_Charging>
  0.0000

> <r_epik_Ionization_Penalty_Neutral>
  0.0000

> <r_epik_State_Penalty>
 -0.0000

> <r_epik_Charging_Adjusted_Penalty>
0

> <i_epik_Tot_Q>
0

> <i_epik_Tot_abs_Q>
0

> <s_lp_Force_Field>
OPLS3e

> <r_lp_Energy>
24.925771

> <b_lp_Chiralities_Consistent>
1

> <s_lp_Variant>
sdf/inactives_sanitized.sdf:289-1

$$$$
sdf/inactives_sanitized.sdf:290
                    3D
 Schrodinger Suite 2020-1.
 60 62  0  0  1  0            999 V2000
   -0.6886    2.0489   -1.1974 C   0  0  0  0  0  0
   -1.1659    3.3663   -1.2314 C   0  0  0  0  0  0
   -1.5228    3.9772   -0.0207 C   0  0  0  0  0  0
   -1.3944    3.2936    1.1882 C   0  0  0  0  0  0
   -0.8983    1.9917    1.2063 C   0  0  0  0  0  0
   -0.5362    1.3641    0.0126 C   0  0  0  0  0  0
    0.0491   -0.0449    0.0291 C   0  0  0  0  0  0
    1.6032   -0.0506    0.0269 C   0  0  2  0  0  0
    2.1636    0.6106   -1.1576 N   0  0  0  0  0  0
    2.1374   -1.4930    0.1109 C   0  0  0  0  0  0
    2.0615   -2.2357   -0.8697 O   0  0  0  0  0  0
    2.6282   -1.8785    1.3006 N   0  0  0  0  0  0
    3.2055   -3.1941    1.5578 C   0  0  0  0  0  0
    4.4551   -3.4272    0.8120 C   0  0  0  0  0  0
    5.4364   -3.6102    0.2269 N   0  0  0  0  0  0
    2.7295    1.8315   -1.1853 C   0  0  0  0  0  0
    2.8798    2.5481   -0.1943 O   0  0  0  0  0  0
    3.1217    2.2588   -2.5075 C   0  0  0  0  0  0
   -1.2604    4.0945   -2.5405 C   0  0  0  0  0  0
   -0.8066    3.6346   -3.6841 N   0  0  0  0  0  0
   -1.0130    4.5104   -4.7418 N   0  0  0  0  0  0
   -1.6164    5.6201   -4.3896 C   0  0  0  0  0  0
   -1.9902    5.6728   -2.6911 S   0  0  0  0  0  0
    2.6135    1.8862   -3.7477 C   0  0  0  0  0  0
    3.2424    2.6751   -4.7228 C   0  0  0  0  0  0
    4.0618    3.5262   -4.1387 N   0  0  0  0  0  0
    3.9860    3.2885   -2.8209 N   0  0  0  0  0  0
    4.7636    4.1392   -1.9253 C   0  0  0  0  0  0
   -1.9484    6.7293   -5.3588 C   0  0  0  0  0  0
    3.0497    2.6381   -6.2477 C   0  0  0  0  0  0
    3.1754    1.1791   -6.7454 C   0  0  0  0  0  0
    4.1000    3.4963   -7.0005 C   0  0  0  0  0  0
    1.6398    3.1689   -6.5878 C   0  0  0  0  0  0
   -0.4016    1.5556   -2.1152 H   0  0  0  0  0  0
   -1.8945    4.9906    0.0003 H   0  0  0  0  0  0
   -1.6687    3.7789    2.1133 H   0  0  0  0  0  0
   -0.7861    1.4778    2.1500 H   0  0  0  0  0  0
   -0.3485   -0.5924   -0.8283 H   0  0  0  0  0  0
   -0.3437   -0.5778    0.8975 H   0  0  0  0  0  0
    1.9251    0.4823    0.9252 H   0  0  0  0  0  0
    2.1110    0.0791   -2.0145 H   0  0  0  0  0  0
    2.6708   -1.2077    2.0542 H   0  0  0  0  0  0
    3.4276   -3.2808    2.6214 H   0  0  0  0  0  0
    2.4948   -3.9851    1.3132 H   0  0  0  0  0  0
    1.8641    1.1304   -3.9326 H   0  0  0  0  0  0
    5.2405    3.5254   -1.1608 H   0  0  0  0  0  0
    4.0980    4.8594   -1.4492 H   0  0  0  0  0  0
    5.5404    4.6759   -2.4731 H   0  0  0  0  0  0
   -1.6252    6.5057   -6.3763 H   0  0  0  0  0  0
   -1.4701    7.6656   -5.0708 H   0  0  0  0  0  0
   -3.0218    6.9154   -5.3985 H   0  0  0  0  0  0
    3.0411    1.1078   -7.8258 H   0  0  0  0  0  0
    2.4317    0.5275   -6.2845 H   0  0  0  0  0  0
    4.1551    0.7611   -6.5089 H   0  0  0  0  0  0
    5.1166    3.1638   -6.7851 H   0  0  0  0  0  0
    4.0397    4.5477   -6.7154 H   0  0  0  0  0  0
    3.9629    3.4462   -8.0816 H   0  0  0  0  0  0
    1.4426    3.1394   -7.6603 H   0  0  0  0  0  0
    1.5150    4.2019   -6.2596 H   0  0  0  0  0  0
    0.8611    2.5829   -6.0974 H   0  0  0  0  0  0
  1  6  2  0  0  0
  1  2  1  0  0  0
  1 34  1  0  0  0
  2 19  1  0  0  0
  2  3  2  0  0  0
  3  4  1  0  0  0
  3 35  1  0  0  0
  4  5  2  0  0  0
  4 36  1  0  0  0
  5  6  1  0  0  0
  5 37  1  0  0  0
  6  7  1  0  0  0
  7  8  1  0  0  0
  7 38  1  0  0  0
  7 39  1  0  0  0
  8  9  1  0  0  0
  8 10  1  0  0  0
  8 40  1  0  0  0
  9 16  1  0  0  0
  9 41  1  0  0  0
 10 11  2  0  0  0
 10 12  1  0  0  0
 12 13  1  0  0  0
 12 42  1  0  0  0
 13 14  1  0  0  0
 13 43  1  0  0  0
 13 44  1  0  0  0
 14 15  3  0  0  0
 16 17  2  0  0  0
 16 18  1  0  0  0
 18 24  2  0  0  0
 18 27  1  0  0  0
 19 20  2  0  0  0
 19 23  1  0  0  0
 20 21  1  0  0  0
 21 22  2  0  0  0
 22 23  1  0  0  0
 22 29  1  0  0  0
 24 25  1  0  0  0
 24 45  1  0  0  0
 25 26  2  0  0  0
 25 30  1  0  0  0
 26 27  1  0  0  0
 27 28  1  0  0  0
 28 46  1  0  0  0
 28 47  1  0  0  0
 28 48  1  0  0  0
 29 49  1  0  0  0
 29 50  1  0  0  0
 29 51  1  0  0  0
 30 31  1  0  0  0
 30 32  1  0  0  0
 30 33  1  0  0  0
 31 52  1  0  0  0
 31 53  1  0  0  0
 31 54  1  0  0  0
 32 55  1  0  0  0
 32 56  1  0  0  0
 32 57  1  0  0  0
 33 58  1  0  0  0
 33 59  1  0  0  0
 33 60  1  0  0  0
M  END
> <chembl_id>
CHEMBL562844

> <chembl_pref_name>
None

> <i_m_ct_stereo_status>
1

> <s_m_source_file>
sdf/inactives_sanitized.sdf

> <i_m_source_file_index>
290

> <i_lp_mmshare_version>
49012

> <i_f3d_flags>
0

> <s_epik_input>
czFjKFtDSDNdKW5uYzEtYzJbY0hdYyhbY0hdW2NIXVtjSF0yKVtDSDJdW0NAQEhdKEMoPU8pW05IXVtDSDJdQyNOKVtOSF1DKD1PKWMzW2NIXWMoQyhbQ0gzXSkoW0NIM10pW0NIM10pbm4zW0NIM10=

> <s_epik_cmdline>
J2VwaWtfcHl0aG9uJywgJy1waHQnLCAnMC41JywgJy1waCcsICc3LjUnLCAnLW50JywgJy1tYScsICcyMDAnLCAnLWltYWUnLCAnPGluZmlsZS5tYWU+JywgJy1vbWFlJywgJzxvdXRmaWxlLm1hZT4n

> <r_lp_tautomer_probability>
1

> <r_epik_Ionization_Penalty>
  0.0000

> <r_epik_Ionization_Penalty_Charging>
  0.0000

> <r_epik_Ionization_Penalty_Neutral>
  0.0000

> <r_epik_State_Penalty>
 -0.0000

> <r_epik_Charging_Adjusted_Penalty>
0

> <i_epik_Tot_Q>
0

> <i_epik_Tot_abs_Q>
0

> <s_lp_Force_Field>
OPLS3e

> <r_lp_Energy>
22.78406

> <b_lp_Chiralities_Consistent>
1

> <s_lp_Variant>
sdf/inactives_sanitized.sdf:290-1

$$$$
sdf/inactives_sanitized.sdf:291
                    3D
 Schrodinger Suite 2020-1.
 65 67  0  0  1  0            999 V2000
    0.2718    4.4810    0.7005 C   0  0  0  0  0  0
   -0.7530    3.3205    0.5354 C   0  0  0  0  0  0
   -1.3460    3.4702   -0.8994 C   0  0  0  0  0  0
    0.0626   -0.3175   -0.5277 C   0  0  0  0  0  0
   -0.6956    0.6915    0.1028 C   0  0  0  0  0  0
   -2.0685    0.4823    0.2969 C   0  0  0  0  0  0
   -2.7065   -0.6820   -0.1393 C   0  0  0  0  0  0
   -1.9475   -1.6666   -0.7788 C   0  0  0  0  0  0
   -0.5814   -1.4829   -0.9741 C   0  0  0  0  0  0
   -0.0400    1.9254    0.6710 C   0  0  0  0  0  0
    1.0923    1.8769    1.1606 O   0  0  0  0  0  0
   -1.8062    3.4486    1.6733 C   0  0  0  0  0  0
   -1.4329    3.2482    3.0153 C   0  0  0  0  0  0
   -2.3650    3.3451    4.0482 C   0  0  0  0  0  0
   -3.6929    3.6511    3.7604 C   0  0  0  0  0  0
   -4.0829    3.8730    2.4417 C   0  0  0  0  0  0
   -3.1466    3.7854    1.4105 C   0  0  0  0  0  0
   -5.7284    4.2499    2.0832 Cl  0  0  0  0  0  0
   -1.8726    3.0840    5.6814 Cl  0  0  0  0  0  0
    1.4161   -0.1161   -0.7274 O   0  0  0  0  0  0
    2.2842   -1.2473   -0.7740 C   0  0  0  0  0  0
   -4.1861   -0.8473    0.0934 C   0  0  0  0  0  0
   -4.9388    0.1292    0.0662 O   0  0  0  0  0  0
   -4.5996   -2.0918    0.4026 N   0  0  0  0  0  0
   -5.9597   -2.4470    0.8279 C   0  0  0  0  0  0
   -6.4800   -1.8045    2.1198 C   0  0  0  0  0  0
   -5.5683   -1.2583    2.9767 N   0  0  0  0  0  0
   -6.0715   -0.6151    4.0604 C   0  0  0  0  0  0
   -7.3841   -0.4691    4.3751 N   0  0  0  0  0  0
   -8.2655   -1.0250    3.5018 C   0  0  0  0  0  0
   -7.8587   -1.7004    2.3468 C   0  0  0  0  0  0
   -5.1073   -0.0027    4.9577 C   0  0  0  0  0  0
   -4.3387    0.4854    5.6721 N   0  0  0  0  0  0
    3.7159   -0.8067   -0.4166 C   0  0  0  0  0  0
    3.7459    0.0607    0.8653 N   0  3  0  0  0  0
    3.2709   -0.6878    2.1274 C   0  0  0  0  0  0
    5.1341    0.6905    1.0879 C   0  0  0  0  0  0
    0.7699    4.4672    1.6714 H   0  0  0  0  0  0
   -0.2143    5.4539    0.6128 H   0  0  0  0  0  0
    1.0525    4.4445   -0.0613 H   0  0  0  0  0  0
   -2.1617    2.7766   -1.1025 H   0  0  0  0  0  0
   -0.5882    3.3038   -1.6671 H   0  0  0  0  0  0
   -1.7404    4.4738   -1.0661 H   0  0  0  0  0  0
   -2.6636    1.2164    0.8150 H   0  0  0  0  0  0
   -2.4083   -2.5758   -1.1384 H   0  0  0  0  0  0
   -0.0296   -2.2576   -1.4847 H   0  0  0  0  0  0
   -0.4092    3.0082    3.2630 H   0  0  0  0  0  0
   -4.4180    3.7183    4.5586 H   0  0  0  0  0  0
   -3.4897    3.9652    0.4035 H   0  0  0  0  0  0
    1.9627   -2.0298   -0.0839 H   0  0  0  0  0  0
    2.2682   -1.6799   -1.7754 H   0  0  0  0  0  0
   -3.9229   -2.8408    0.3949 H   0  0  0  0  0  0
   -6.6432   -2.2109    0.0098 H   0  0  0  0  0  0
   -6.0106   -3.5294    0.9484 H   0  0  0  0  0  0
   -9.3140   -0.9090    3.7341 H   0  0  0  0  0  0
   -8.5807   -2.1136    1.6574 H   0  0  0  0  0  0
    4.3896   -1.6476   -0.2433 H   0  0  0  0  0  0
    4.1273   -0.1719   -1.2029 H   0  0  0  0  0  0
    3.9275   -1.5467    2.2741 H   0  0  0  0  0  0
    2.2361   -0.9894    1.9656 H   0  0  0  0  0  0
    3.3325    0.0129    2.9612 H   0  0  0  0  0  0
    5.8457   -0.1203    1.2514 H   0  0  0  0  0  0
    5.0582    1.3423    1.9591 H   0  0  0  0  0  0
    5.3772    1.2676    0.1948 H   0  0  0  0  0  0
    3.0983    0.8233    0.7151 H   0  0  0  0  0  0
  1  2  1  0  0  0
  1 38  1  0  0  0
  1 39  1  0  0  0
  1 40  1  0  0  0
  2  3  1  0  0  0
  2 10  1  0  0  0
  2 12  1  0  0  0
  3 41  1  0  0  0
  3 42  1  0  0  0
  3 43  1  0  0  0
  4  5  2  0  0  0
  4  9  1  0  0  0
  4 20  1  0  0  0
  5  6  1  0  0  0
  5 10  1  0  0  0
  6  7  2  0  0  0
  6 44  1  0  0  0
  7  8  1  0  0  0
  7 22  1  0  0  0
  8  9  2  0  0  0
  8 45  1  0  0  0
  9 46  1  0  0  0
 10 11  2  0  0  0
 12 13  2  0  0  0
 12 17  1  0  0  0
 13 14  1  0  0  0
 13 47  1  0  0  0
 14 15  2  0  0  0
 14 19  1  0  0  0
 15 16  1  0  0  0
 15 48  1  0  0  0
 16 17  2  0  0  0
 16 18  1  0  0  0
 17 49  1  0  0  0
 20 21  1  0  0  0
 21 34  1  0  0  0
 21 50  1  0  0  0
 21 51  1  0  0  0
 22 23  2  0  0  0
 22 24  1  0  0  0
 24 25  1  0  0  0
 24 52  1  0  0  0
 25 26  1  0  0  0
 25 53  1  0  0  0
 25 54  1  0  0  0
 26 27  2  0  0  0
 26 31  1  0  0  0
 27 28  1  0  0  0
 28 29  2  0  0  0
 28 32  1  0  0  0
 29 30  1  0  0  0
 30 31  2  0  0  0
 30 55  1  0  0  0
 31 56  1  0  0  0
 32 33  3  0  0  0
 34 35  1  0  0  0
 34 57  1  0  0  0
 34 58  1  0  0  0
 35 36  1  0  0  0
 35 37  1  0  0  0
 35 65  1  0  0  0
 36 59  1  0  0  0
 36 60  1  0  0  0
 36 61  1  0  0  0
 37 62  1  0  0  0
 37 63  1  0  0  0
 37 64  1  0  0  0
M  CHG  1  35   1
M  END
> <chembl_id>
CHEMBL3354495

> <chembl_pref_name>
None

> <s_m_source_file>
sdf/inactives_sanitized.sdf

> <i_m_source_file_index>
291

> <i_lp_mmshare_version>
49012

> <i_m_ct_stereo_status>
1

> <i_f3d_flags>
0

> <s_epik_input>
W2NIXTFjKENsKVtjSF1jKENsKVtjSF1jMUMoW0NIM10pKFtDSDNdKUMoPU8pYyhjMk9bQ0gyXVtDSDJdTihbQ0gzXSlbQ0gzXSlbY0hdYyhbY0hdW2NIXTIpQyg9TylbTkhdW0NIMl1jM25jKEMjTiluW2NIXVtjSF0z

> <s_epik_cmdline>
J2VwaWtfcHl0aG9uJywgJy1waHQnLCAnMC41JywgJy1waCcsICc3LjUnLCAnLW50JywgJy1tYScsICcyMDAnLCAnLWltYWUnLCAnPGluZmlsZS5tYWU+JywgJy1vbWFlJywgJzxvdXRmaWxlLm1hZT4n

> <r_epik_Ionization_Penalty>
  0.0751

> <r_epik_Ionization_Penalty_Charging>
  0.0751

> <r_epik_Ionization_Penalty_Neutral>
  0.0000

> <r_epik_State_Penalty>
  0.0662

> <r_epik_Charging_Adjusted_Penalty>
0.141341821197771

> <i_epik_Tot_Q>
1

> <i_epik_Tot_abs_Q>
1

> <s_epik_Chemistry_Notes>
This compound contains an electron-poor aromatic ring that is susceptible to covalent hydrolysis at low pH, typically resulting in measured values for nitrogen ring protonation that are around two units higher than predicted values.

> <s_lp_Force_Field>
OPLS3e

> <r_lp_Energy>
64.701779

> <b_lp_Chiralities_Consistent>
1

> <s_lp_Variant>
sdf/inactives_sanitized.sdf:291-1

$$$$
sdf/inactives_sanitized.sdf:292
                    3D
 Schrodinger Suite 2020-1.
 46 47  0  0  1  0            999 V2000
    1.8084    3.5432    1.8308 C   0  0  0  0  0  0
    1.7976    2.3922    1.1763 N   0  0  0  0  0  0
    2.0063    1.3430    1.9346 C   0  0  0  0  0  0
    2.2842    1.7287    3.6046 S   0  0  0  0  0  0
    2.0373   -0.0526    1.4976 C   0  0  0  0  0  0
   -2.1794    0.5982   -0.2606 C   0  0  0  0  0  0
    2.0577    3.4022    3.2009 C   0  0  0  0  0  0
   -0.6855    0.6922   -0.4649 C   0  0  0  0  0  0
    1.5678    4.7702    1.0682 C   0  0  0  0  0  0
    0.0382   -0.2948    0.1000 N   0  0  0  0  0  0
    1.5006   -0.4092    0.0997 C   0  0  0  0  0  0
   -2.9443    1.7382    0.0722 C   0  0  0  0  0  0
    2.4680   -0.9582    2.2129 O   0  0  0  0  0  0
   -0.1896    1.6282   -1.0942 O   0  0  0  0  0  0
    1.4754    4.8170   -0.1623 O   0  0  0  0  0  0
    1.4487    5.8354    1.8958 O   0  0  0  0  0  0
   -2.8206   -0.6411   -0.4186 C   0  0  0  0  0  0
   -2.2885    2.9470    0.2500 O   0  0  0  0  0  0
   -4.3358    1.5973    0.2312 C   0  0  0  0  0  0
    1.2104    7.1373    1.3766 C   0  0  0  0  0  0
   -3.0302    4.1227    0.5632 C   0  0  0  0  0  0
   -2.0488    5.2888    0.7411 C   0  0  0  0  0  0
   -4.1978   -0.7593   -0.2532 C   0  0  0  0  0  0
    0.9022    8.0959    2.5306 C   0  0  0  0  0  0
   -2.7462    6.6217    1.0434 C   0  0  0  0  0  0
   -4.9553    0.3605    0.0704 C   0  0  0  0  0  0
    2.1219    4.1700    3.9582 H   0  0  0  0  0  0
   -0.4614   -1.0451    0.5546 H   0  0  0  0  0  0
    1.7682   -1.4326   -0.1670 H   0  0  0  0  0  0
    1.9701    0.2297   -0.6512 H   0  0  0  0  0  0
   -2.2567   -1.5252   -0.6811 H   0  0  0  0  0  0
   -4.9604    2.4397    0.4858 H   0  0  0  0  0  0
    2.0879    7.4796    0.8260 H   0  0  0  0  0  0
    0.3713    7.1212    0.6793 H   0  0  0  0  0  0
   -3.7328    4.3450   -0.2423 H   0  0  0  0  0  0
   -3.5975    3.9803    1.4848 H   0  0  0  0  0  0
   -1.3582    5.0561    1.5521 H   0  0  0  0  0  0
   -1.4429    5.3961   -0.1597 H   0  0  0  0  0  0
   -4.6775   -1.7188   -0.3798 H   0  0  0  0  0  0
    0.7180    9.1033    2.1576 H   0  0  0  0  0  0
    1.7335    8.1483    3.2344 H   0  0  0  0  0  0
    0.0152    7.7779    3.0793 H   0  0  0  0  0  0
   -2.0176    7.4235    1.1647 H   0  0  0  0  0  0
   -3.3287    6.5637    1.9634 H   0  0  0  0  0  0
   -3.4207    6.9077    0.2358 H   0  0  0  0  0  0
   -6.0240    0.2710    0.1984 H   0  0  0  0  0  0
  1  2  1  0  0  0
  1  7  2  0  0  0
  1  9  1  0  0  0
  2  3  2  0  0  0
  3  5  1  0  0  0
  3  4  1  0  0  0
  4  7  1  0  0  0
  5 11  1  0  0  0
  5 13  2  0  0  0
  6  8  1  0  0  0
  6 12  2  0  0  0
  6 17  1  0  0  0
  7 27  1  0  0  0
  8 10  1  0  0  0
  8 14  2  0  0  0
  9 15  2  0  0  0
  9 16  1  0  0  0
 10 11  1  0  0  0
 10 28  1  0  0  0
 11 29  1  0  0  0
 11 30  1  0  0  0
 12 18  1  0  0  0
 12 19  1  0  0  0
 16 20  1  0  0  0
 17 23  2  0  0  0
 17 31  1  0  0  0
 18 21  1  0  0  0
 19 26  2  0  0  0
 19 32  1  0  0  0
 20 24  1  0  0  0
 20 33  1  0  0  0
 20 34  1  0  0  0
 21 22  1  0  0  0
 21 35  1  0  0  0
 21 36  1  0  0  0
 22 25  1  0  0  0
 22 37  1  0  0  0
 22 38  1  0  0  0
 23 26  1  0  0  0
 23 39  1  0  0  0
 24 40  1  0  0  0
 24 41  1  0  0  0
 24 42  1  0  0  0
 25 43  1  0  0  0
 25 44  1  0  0  0
 25 45  1  0  0  0
 26 46  1  0  0  0
M  END
> <chembl_id>
CHEMBL183647

> <chembl_pref_name>
None

> <s_m_source_file>
sdf/inactives_sanitized.sdf

> <i_m_source_file_index>
292

> <i_lp_mmshare_version>
49012

> <i_m_ct_stereo_status>
1

> <i_f3d_flags>
0

> <s_epik_input>
W0NIM11bQ0gyXU9DKD1PKWMxbmMoc1tjSF0xKUMoPU8pW0NIMl1bTkhdQyg9TyljMmMoT1tDSDJdW0NIMl1bQ0gzXSlbY0hdW2NIXVtjSF1bY0hdMg==

> <s_epik_cmdline>
J2VwaWtfcHl0aG9uJywgJy1waHQnLCAnMC41JywgJy1waCcsICc3LjUnLCAnLW50JywgJy1tYScsICcyMDAnLCAnLWltYWUnLCAnPGluZmlsZS5tYWU+JywgJy1vbWFlJywgJzxvdXRmaWxlLm1hZT4n

> <r_lp_tautomer_probability>
1

> <r_epik_Ionization_Penalty>
  0.0000

> <r_epik_Ionization_Penalty_Charging>
  0.0000

> <r_epik_Ionization_Penalty_Neutral>
  0.0000

> <r_epik_State_Penalty>
 -0.0000

> <r_epik_Charging_Adjusted_Penalty>
0

> <i_epik_Tot_Q>
0

> <i_epik_Tot_abs_Q>
0

> <s_epik_Chemistry_Notes>
This compound has an ester and may undergo hydrolysis at high or low pH.

> <s_lp_Force_Field>
OPLS3e

> <r_lp_Energy>
26.67255

> <b_lp_Chiralities_Consistent>
1

> <s_lp_Variant>
sdf/inactives_sanitized.sdf:292-1

$$$$
sdf/inactives_sanitized.sdf:293
                    3D
 Schrodinger Suite 2020-1.
 56 59  0  0  1  0            999 V2000
   -1.4877   10.1882    1.3737 N   0  0  0  0  0  0
   -1.0156    8.9378    1.4360 C   0  0  0  0  0  0
   -0.0230    8.6701    2.1122 O   0  0  0  0  0  0
   -1.7486    7.8719    0.6459 C   0  0  0  0  0  0
   -2.8817    8.1709   -0.1281 C   0  0  0  0  0  0
   -3.5354    7.1723   -0.8447 C   0  0  0  0  0  0
   -3.0691    5.8614   -0.8000 C   0  0  0  0  0  0
   -1.9420    5.5212   -0.0398 C   0  0  0  0  0  0
   -1.2964    6.5424    0.6753 C   0  0  0  0  0  0
   -1.4445    4.1118    0.0075 C   0  0  0  0  0  0
   -1.5445    3.2788   -1.1157 C   0  0  0  0  0  0
   -1.0828    1.9663   -1.0753 C   0  0  0  0  0  0
   -0.5124    1.4647    0.0948 C   0  0  0  0  0  0
    0.0182    0.0369    0.1386 C   0  0  0  0  0  0
    1.5581   -0.0577    0.0586 C   0  0  2  0  0  0
    2.1015    0.5411   -1.1642 N   0  0  0  0  0  0
    2.6924    1.7475   -1.2467 C   0  0  0  0  0  0
    2.8847    2.4598   -0.2578 O   0  0  0  0  0  0
    3.1373    2.1832   -2.6674 C   0  0  1  0  0  0
    3.3421    3.6536   -2.7091 N   0  0  1  0  0  0
    4.6560    4.0283   -3.2643 C   0  0  2  0  0  0
    4.7753    3.4121   -4.6865 C   0  0  0  0  0  0
    4.6450    1.8627   -4.6198 C   0  0  0  0  0  0
    4.4128    1.4035   -3.1522 C   0  0  1  0  0  0
    5.6286    1.8739   -2.2975 C   0  0  0  0  0  0
    5.7565    3.4222   -2.3509 C   0  0  0  0  0  0
    2.0299   -1.4466    0.1804 C   0  0  0  0  0  0
    2.4006   -2.5387    0.2756 N   0  0  0  0  0  0
   -0.4067    2.2799    1.2211 C   0  0  0  0  0  0
   -0.8682    3.5923    1.1752 C   0  0  0  0  0  0
   -1.0280   10.9273    1.8851 H   0  0  0  0  0  0
   -2.3044   10.3992    0.8200 H   0  0  0  0  0  0
   -3.2729    9.1761   -0.1871 H   0  0  0  0  0  0
   -4.4073    7.4141   -1.4347 H   0  0  0  0  0  0
   -3.6032    5.1056   -1.3570 H   0  0  0  0  0  0
   -0.4185    6.2952    1.2557 H   0  0  0  0  0  0
   -1.9708    3.6476   -2.0369 H   0  0  0  0  0  0
   -1.1616    1.3466   -1.9566 H   0  0  0  0  0  0
   -0.3338   -0.4346    1.0577 H   0  0  0  0  0  0
   -0.4332   -0.5455   -0.6668 H   0  0  0  0  0  0
    1.9752    0.4349    0.9396 H   0  0  0  0  0  0
    1.8966    0.0533   -2.0238 H   0  0  0  0  0  0
    2.2867    1.9496   -3.3111 H   0  0  0  0  0  0
    2.6445    4.0527   -3.3205 H   0  0  0  0  0  0
    4.7405    5.1150   -3.3020 H   0  0  0  0  0  0
    4.0078    3.8268   -5.3419 H   0  0  0  0  0  0
    5.7317    3.6887   -5.1322 H   0  0  0  0  0  0
    3.8250    1.5252   -5.2555 H   0  0  0  0  0  0
    5.5446    1.3930   -5.0202 H   0  0  0  0  0  0
    4.2814    0.3216   -3.0988 H   0  0  0  0  0  0
    5.5320    1.5352   -1.2651 H   0  0  0  0  0  0
    6.5437    1.4125   -2.6716 H   0  0  0  0  0  0
    5.6792    3.8391   -1.3453 H   0  0  0  0  0  0
    6.7441    3.7047   -2.7182 H   0  0  0  0  0  0
    0.0382    1.9014    2.1300 H   0  0  0  0  0  0
   -0.7808    4.2010    2.0631 H   0  0  0  0  0  0
  1  2  1  0  0  0
  1 31  1  0  0  0
  1 32  1  0  0  0
  2  3  2  0  0  0
  2  4  1  0  0  0
  4  5  2  0  0  0
  4  9  1  0  0  0
  5  6  1  0  0  0
  5 33  1  0  0  0
  6  7  2  0  0  0
  6 34  1  0  0  0
  7  8  1  0  0  0
  7 35  1  0  0  0
  8  9  2  0  0  0
  8 10  1  0  0  0
  9 36  1  0  0  0
 10 11  2  0  0  0
 10 30  1  0  0  0
 11 12  1  0  0  0
 11 37  1  0  0  0
 12 13  2  0  0  0
 12 38  1  0  0  0
 13 14  1  0  0  0
 13 29  1  0  0  0
 14 15  1  0  0  0
 14 39  1  0  0  0
 14 40  1  0  0  0
 15 16  1  0  0  0
 15 27  1  0  0  0
 15 41  1  0  0  0
 16 17  1  0  0  0
 16 42  1  0  0  0
 17 18  2  0  0  0
 17 19  1  0  0  0
 19 20  1  0  0  0
 19 24  1  0  0  0
 19 43  1  0  0  0
 20 21  1  0  0  0
 20 44  1  0  0  0
 21 22  1  0  0  0
 21 26  1  0  0  0
 21 45  1  0  0  0
 22 23  1  0  0  0
 22 46  1  0  0  0
 22 47  1  0  0  0
 23 24  1  0  0  0
 23 48  1  0  0  0
 23 49  1  0  0  0
 24 25  1  0  0  0
 24 50  1  0  0  0
 25 26  1  0  0  0
 25 51  1  0  0  0
 25 52  1  0  0  0
 26 53  1  0  0  0
 26 54  1  0  0  0
 27 28  3  0  0  0
 29 30  2  0  0  0
 29 55  1  0  0  0
 30 56  1  0  0  0
M  END
> <chembl_id>
CHEMBL3695345

> <chembl_pref_name>
None

> <i_m_ct_stereo_status>
1

> <s_m_source_file>
sdf/inactives_sanitized.sdf

> <i_m_source_file_index>
293

> <i_lp_mmshare_version>
49012

> <i_f3d_flags>
0

> <s_epik_input>
W05IMl1DKD1PKWMxW2NIXVtjSF1bY0hdYyhbY0hdMSktYzJbY0hdW2NIXWMoW2NIXVtjSF0yKVtDSDJdW0NAQEhdKEMjTilbTkhdQyg9TylbQ0BASF0oW05IXVtDQEhdMzQpW0NAQEhdKFtDSDJdW0NIMl0zKVtDSDJdW0NIMl00

> <s_epik_cmdline>
J2VwaWtfcHl0aG9uJywgJy1waHQnLCAnMC41JywgJy1waCcsICc3LjUnLCAnLW50JywgJy1tYScsICcyMDAnLCAnLWltYWUnLCAnPGluZmlsZS5tYWU+JywgJy1vbWFlJywgJzxvdXRmaWxlLm1hZT4n

> <r_epik_Ionization_Penalty>
  0.4101

> <r_epik_Ionization_Penalty_Charging>
  0.0000

> <r_epik_Ionization_Penalty_Neutral>
  0.4101

> <r_epik_State_Penalty>
  0.4100

> <r_epik_Charging_Adjusted_Penalty>
0.410033589345069

> <i_epik_Tot_Q>
0

> <i_epik_Tot_abs_Q>
0

> <s_lp_Force_Field>
OPLS3e

> <r_lp_Energy>
48.349933

> <b_lp_Chiralities_Consistent>
1

> <s_lp_Variant>
sdf/inactives_sanitized.sdf:293-1

$$$$
sdf/inactives_sanitized.sdf:293
                    3D
 Schrodinger Suite 2020-1.
 57 60  0  0  1  0            999 V2000
   -1.8672   10.0186   -1.9212 N   0  0  0  0  0  0
   -1.5348    8.7297   -2.0553 C   0  0  0  0  0  0
   -0.8126    8.3534   -2.9777 O   0  0  0  0  0  0
   -2.0821    7.7578   -1.0304 C   0  0  0  0  0  0
   -3.0735    8.1329   -0.1099 C   0  0  0  0  0  0
   -3.5604    7.2180    0.8197 C   0  0  0  0  0  0
   -3.0671    5.9162    0.8431 C   0  0  0  0  0  0
   -2.0802    5.5016   -0.0616 C   0  0  0  0  0  0
   -1.6013    6.4394   -0.9899 C   0  0  0  0  0  0
   -1.5552    4.1017   -0.0396 C   0  0  0  0  0  0
   -1.4321    3.4004    1.1680 C   0  0  0  0  0  0
   -0.9445    2.0968    1.1900 C   0  0  0  0  0  0
   -0.5709    1.4717    0.0001 C   0  0  0  0  0  0
   -0.0280    0.0468    0.0232 C   0  0  0  0  0  0
    1.5166   -0.0406    0.0743 C   0  0  2  0  0  0
    2.1096    0.6476    1.2229 N   0  0  0  0  0  0
    2.0805    0.2045    2.4914 C   0  0  0  0  0  0
    1.5515   -0.8650    2.8050 O   0  0  0  0  0  0
    2.7535    1.1334    3.5343 C   0  0  1  0  0  0
    2.4153    0.5439    4.9360 N   0  3  0  0  0  0
    3.6813    0.2923    5.7902 C   0  0  2  0  0  0
    4.4204    1.6506    5.8991 C   0  0  0  0  0  0
    4.8113    2.1812    4.4894 C   0  0  0  0  0  0
    4.3101    1.2273    3.3677 C   0  0  1  0  0  0
    4.9477   -0.1741    3.6201 C   0  0  0  0  0  0
    4.5460   -0.7324    5.0141 C   0  0  0  0  0  0
    2.1479    0.4427   -1.1655 C   0  0  0  0  0  0
    2.6439    0.8230   -2.1394 N   0  0  0  0  0  0
   -0.6898    2.1553   -1.2095 C   0  0  0  0  0  0
   -1.1763    3.4592   -1.2268 C   0  0  0  0  0  0
   -1.5285   10.6992   -2.5854 H   0  0  0  0  0  0
   -2.4482   10.3189   -1.1527 H   0  0  0  0  0  0
   -3.4830    9.1326   -0.1025 H   0  0  0  0  0  0
   -4.3253    7.5175    1.5208 H   0  0  0  0  0  0
   -3.4724    5.2249    1.5673 H   0  0  0  0  0  0
   -0.8309    6.1369   -1.6854 H   0  0  0  0  0  0
   -1.7048    3.8659    2.1036 H   0  0  0  0  0  0
   -0.8535    1.5776    2.1331 H   0  0  0  0  0  0
   -0.4614   -0.4828    0.8735 H   0  0  0  0  0  0
   -0.3988   -0.4841   -0.8552 H   0  0  0  0  0  0
    1.8048   -1.0932    0.1154 H   0  0  0  0  0  0
    2.5247    1.5484    1.0334 H   0  0  0  0  0  0
    2.2474    2.0993    3.4825 H   0  0  0  0  0  0
    1.8093    1.1830    5.4307 H   0  0  0  0  0  0
    3.3352   -0.0857    6.7531 H   0  0  0  0  0  0
    3.7921    2.3797    6.4135 H   0  0  0  0  0  0
    5.3132    1.5380    6.5161 H   0  0  0  0  0  0
    4.4051    3.1829    4.3396 H   0  0  0  0  0  0
    5.8948    2.2933    4.4221 H   0  0  0  0  0  0
    4.5876    1.6134    2.3853 H   0  0  0  0  0  0
    4.6657   -0.8768    2.8347 H   0  0  0  0  0  0
    6.0342   -0.0960    3.5557 H   0  0  0  0  0  0
    3.9978   -1.6686    4.8961 H   0  0  0  0  0  0
    5.4384   -0.9794    5.5908 H   0  0  0  0  0  0
   -0.4045    1.6808   -2.1374 H   0  0  0  0  0  0
   -1.2667    3.9629   -2.1780 H   0  0  0  0  0  0
    1.9172   -0.3276    4.8170 H   0  0  0  0  0  0
  1  2  1  0  0  0
  1 31  1  0  0  0
  1 32  1  0  0  0
  2  3  2  0  0  0
  2  4  1  0  0  0
  4  5  2  0  0  0
  4  9  1  0  0  0
  5  6  1  0  0  0
  5 33  1  0  0  0
  6  7  2  0  0  0
  6 34  1  0  0  0
  7  8  1  0  0  0
  7 35  1  0  0  0
  8  9  2  0  0  0
  8 10  1  0  0  0
  9 36  1  0  0  0
 10 11  2  0  0  0
 10 30  1  0  0  0
 11 12  1  0  0  0
 11 37  1  0  0  0
 12 13  2  0  0  0
 12 38  1  0  0  0
 13 14  1  0  0  0
 13 29  1  0  0  0
 14 15  1  0  0  0
 14 39  1  0  0  0
 14 40  1  0  0  0
 15 16  1  0  0  0
 15 27  1  0  0  0
 15 41  1  0  0  0
 16 17  1  0  0  0
 16 42  1  0  0  0
 17 18  2  0  0  0
 17 19  1  0  0  0
 19 20  1  0  0  0
 19 24  1  0  0  0
 19 43  1  0  0  0
 20 21  1  0  0  0
 20 44  1  0  0  0
 20 57  1  0  0  0
 21 22  1  0  0  0
 21 26  1  0  0  0
 21 45  1  0  0  0
 22 23  1  0  0  0
 22 46  1  0  0  0
 22 47  1  0  0  0
 23 24  1  0  0  0
 23 48  1  0  0  0
 23 49  1  0  0  0
 24 25  1  0  0  0
 24 50  1  0  0  0
 25 26  1  0  0  0
 25 51  1  0  0  0
 25 52  1  0  0  0
 26 53  1  0  0  0
 26 54  1  0  0  0
 27 28  3  0  0  0
 29 30  2  0  0  0
 29 55  1  0  0  0
 30 56  1  0  0  0
M  CHG  1  20   1
M  END
> <chembl_id>
CHEMBL3695345

> <chembl_pref_name>
None

> <i_m_ct_stereo_status>
1

> <s_m_source_file>
sdf/inactives_sanitized.sdf

> <i_m_source_file_index>
293

> <i_lp_mmshare_version>
49012

> <i_f3d_flags>
0

> <s_epik_input>
W05IMl1DKD1PKWMxW2NIXVtjSF1bY0hdYyhbY0hdMSktYzJbY0hdW2NIXWMoW2NIXVtjSF0yKVtDSDJdW0NAQEhdKEMjTilbTkhdQyg9TylbQ0BASF0oW05IXVtDQEhdMzQpW0NAQEhdKFtDSDJdW0NIMl0zKVtDSDJdW0NIMl00

> <s_epik_cmdline>
J2VwaWtfcHl0aG9uJywgJy1waHQnLCAnMC41JywgJy1waCcsICc3LjUnLCAnLW50JywgJy1tYScsICcyMDAnLCAnLWltYWUnLCAnPGluZmlsZS5tYWU+JywgJy1vbWFlJywgJzxvdXRmaWxlLm1hZT4n

> <r_epik_Ionization_Penalty>
  0.4114

> <r_epik_Ionization_Penalty_Charging>
  0.4113

> <r_epik_Ionization_Penalty_Neutral>
  0.0002

> <r_epik_State_Penalty>
  0.4113

> <r_epik_Charging_Adjusted_Penalty>
0.822612897831462

> <i_epik_Tot_Q>
1

> <i_epik_Tot_abs_Q>
1

> <s_lp_Force_Field>
OPLS3e

> <r_lp_Energy>
53.829717

> <b_lp_Chiralities_Consistent>
1

> <s_lp_Variant>
sdf/inactives_sanitized.sdf:293-2

$$$$
sdf/inactives_sanitized.sdf:294
                    3D
 Schrodinger Suite 2020-1.
 42 43  0  0  1  0            999 V2000
    0.6561   -2.7791    2.4718 C   0  0  0  0  0  0
    1.1697   -4.0768    2.4925 C   0  0  0  0  0  0
    1.0210   -4.9035    1.3784 C   0  0  0  0  0  0
    0.3567   -4.4333    0.2463 C   0  0  0  0  0  0
   -0.1562   -3.1363    0.2257 C   0  0  0  0  0  0
   -0.0028   -2.2957    1.3355 C   0  0  0  0  0  0
   -0.5503   -0.8679    1.3193 C   0  0  0  0  0  0
   -0.0752   -0.0289    0.1001 C   0  0  2  0  0  0
    1.3881    0.0519    0.0254 N   0  0  0  0  0  0
   -0.6583    1.3964    0.1638 C   0  0  0  0  0  0
   -0.2615    2.1853    1.0236 O   0  0  0  0  0  0
   -1.6238    1.6878   -0.7238 N   0  0  0  0  0  0
   -2.2637    2.9950   -0.8331 C   0  0  0  0  0  0
   -1.3374    4.0516   -1.2777 C   0  0  0  0  0  0
   -0.6105    4.8812   -1.6270 N   0  0  0  0  0  0
    2.1700   -0.5347   -0.9028 C   0  0  0  0  0  0
    1.7306   -1.2215   -1.8261 O   0  0  0  0  0  0
    3.5922   -0.3107   -0.7301 C   0  0  0  0  0  0
    1.9902   -4.6579    3.8951 Cl  0  0  0  0  0  0
    4.6172   -0.8412   -1.5270 C   0  0  0  0  0  0
    5.7940   -0.3903   -1.0313 O   0  0  0  0  0  0
    5.4325    0.3774    0.0211 C   0  0  0  0  0  0
    4.1398    0.4421    0.2211 N   0  0  0  0  0  0
    4.7136   -1.7462   -2.7369 C   0  0  0  0  0  0
    6.5225    1.0497    0.8206 C   0  0  0  0  0  0
    0.7791   -2.1459    3.3386 H   0  0  0  0  0  0
    1.4177   -5.9081    1.3898 H   0  0  0  0  0  0
    0.2390   -5.0733   -0.6158 H   0  0  0  0  0  0
   -0.6693   -2.7889   -0.6587 H   0  0  0  0  0  0
   -1.6397   -0.9267    1.3482 H   0  0  0  0  0  0
   -0.2553   -0.3651    2.2431 H   0  0  0  0  0  0
   -0.4613   -0.5065   -0.8029 H   0  0  0  0  0  0
    1.8268    0.6135    0.7410 H   0  0  0  0  0  0
   -1.8838    0.9950   -1.4109 H   0  0  0  0  0  0
   -3.0747    2.9325   -1.5583 H   0  0  0  0  0  0
   -2.7075    3.2912    0.1186 H   0  0  0  0  0  0
    3.7471   -2.1121   -3.0789 H   0  0  0  0  0  0
    5.3247   -2.6237   -2.5264 H   0  0  0  0  0  0
    5.1731   -1.2315   -3.5806 H   0  0  0  0  0  0
    6.1219    1.6490    1.6388 H   0  0  0  0  0  0
    7.1206    1.7150    0.1979 H   0  0  0  0  0  0
    7.2029    0.3204    1.2604 H   0  0  0  0  0  0
  1  6  2  0  0  0
  1  2  1  0  0  0
  1 26  1  0  0  0
  2 19  1  0  0  0
  2  3  2  0  0  0
  3  4  1  0  0  0
  3 27  1  0  0  0
  4  5  2  0  0  0
  4 28  1  0  0  0
  5  6  1  0  0  0
  5 29  1  0  0  0
  6  7  1  0  0  0
  7  8  1  0  0  0
  7 30  1  0  0  0
  7 31  1  0  0  0
  8  9  1  0  0  0
  8 10  1  0  0  0
  8 32  1  0  0  0
  9 16  1  0  0  0
  9 33  1  0  0  0
 10 11  2  0  0  0
 10 12  1  0  0  0
 12 13  1  0  0  0
 12 34  1  0  0  0
 13 14  1  0  0  0
 13 35  1  0  0  0
 13 36  1  0  0  0
 14 15  3  0  0  0
 16 17  2  0  0  0
 16 18  1  0  0  0
 18 20  2  0  0  0
 18 23  1  0  0  0
 20 21  1  0  0  0
 20 24  1  0  0  0
 21 22  1  0  0  0
 22 23  2  0  0  0
 22 25  1  0  0  0
 24 37  1  0  0  0
 24 38  1  0  0  0
 24 39  1  0  0  0
 25 40  1  0  0  0
 25 41  1  0  0  0
 25 42  1  0  0  0
M  END
> <chembl_id>
CHEMBL563522

> <chembl_pref_name>
None

> <i_m_ct_stereo_status>
1

> <s_m_source_file>
sdf/inactives_sanitized.sdf

> <i_m_source_file_index>
294

> <i_lp_mmshare_version>
49012

> <i_f3d_flags>
0

> <s_epik_input>
W2NIXTFbY0hdW2NIXWMoW2NIXWMxQ2wpW0NIMl1bQ0BASF0oQyg9TylbTkhdW0NIMl1DI04pW05IXUMoPU8pYzJjKFtDSDNdKW9jKG4yKVtDSDNd

> <s_epik_cmdline>
J2VwaWtfcHl0aG9uJywgJy1waHQnLCAnMC41JywgJy1waCcsICc3LjUnLCAnLW50JywgJy1tYScsICcyMDAnLCAnLWltYWUnLCAnPGluZmlsZS5tYWU+JywgJy1vbWFlJywgJzxvdXRmaWxlLm1hZT4n

> <r_lp_tautomer_probability>
1

> <r_epik_Ionization_Penalty>
  0.0000

> <r_epik_Ionization_Penalty_Charging>
  0.0000

> <r_epik_Ionization_Penalty_Neutral>
  0.0000

> <r_epik_State_Penalty>
 -0.0000

> <r_epik_Charging_Adjusted_Penalty>
0

> <i_epik_Tot_Q>
0

> <i_epik_Tot_abs_Q>
0

> <s_lp_Force_Field>
OPLS3e

> <r_lp_Energy>
12.161153

> <b_lp_Chiralities_Consistent>
1

> <s_lp_Variant>
sdf/inactives_sanitized.sdf:294-1

$$$$
sdf/inactives_sanitized.sdf:295
                    3D
 Schrodinger Suite 2020-1.
 53 56  0  0  1  0            999 V2000
    2.5053   -0.5552   -4.4583 C   0  0  0  0  0  0
    3.4353   -0.4120   -3.2661 C   0  0  0  0  0  0
    3.5284    0.5494   -4.4321 C   0  0  0  0  0  0
   -0.4019    1.8107   -3.8688 C   0  0  0  0  0  0
    0.2936    3.0029   -4.0538 C   0  0  0  0  0  0
    0.7569    3.7306   -2.9605 C   0  0  0  0  0  0
    0.5220    3.2626   -1.6704 C   0  0  0  0  0  0
   -0.1694    2.0631   -1.4732 C   0  0  0  0  0  0
   -0.6311    1.3387   -2.5794 C   0  0  0  0  0  0
   -0.4056    1.5581   -0.0436 C   0  0  2  0  0  0
    0.1427    0.2144    0.1861 N   0  0  2  0  0  0
    1.6213    0.1135    0.0814 C   0  0  2  0  0  0
    1.9587   -0.5306   -1.2831 C   0  0  0  0  0  0
    2.8989    0.0964   -2.0083 N   0  0  0  0  0  0
    1.3840   -1.5587   -1.6482 O   0  0  0  0  0  0
    4.4761   -1.4439   -3.1145 C   0  0  0  0  0  0
    5.2934   -2.2543   -2.9951 N   0  0  0  0  0  0
    2.1946   -0.7111    1.2550 C   0  0  0  0  0  0
   -1.8963    1.6140    0.3789 C   0  0  0  0  0  0
   -2.0520    1.2765    1.6604 F   0  0  0  0  0  0
   -2.3868    2.8466    0.2413 F   0  0  0  0  0  0
   -2.6657    0.7960   -0.3420 F   0  0  0  0  0  0
    4.0276   -0.3665    1.5716 S   0  0  0  0  0  0
    4.3820   -1.4332    2.9868 C   0  0  0  0  0  0
    4.8168   -0.8789    0.4459 O   0  0  0  0  0  0
    4.1802    1.0191    2.0297 O   0  0  0  0  0  0
    4.2750   -1.0169    4.2183 N   0  0  0  0  0  0
    4.8644   -3.0999    2.7655 S   0  0  0  0  0  0
    4.9461   -3.2462    4.5156 C   0  0  0  0  0  0
    4.5878   -2.0018    5.1018 C   0  0  0  0  0  0
    4.5759   -1.8635    6.4988 C   0  0  0  0  0  0
    4.9225   -2.9686    7.2780 C   0  0  0  0  0  0
    5.2731   -4.1860    6.6947 C   0  0  0  0  0  0
    5.2916   -4.3487    5.3091 C   0  0  0  0  0  0
    2.6553   -1.3887   -5.1452 H   0  0  0  0  0  0
    1.4527   -0.2969   -4.3460 H   0  0  0  0  0  0
    3.1795    1.5747   -4.3037 H   0  0  0  0  0  0
    4.3880    0.4827   -5.0995 H   0  0  0  0  0  0
   -0.7561    1.2511   -4.7219 H   0  0  0  0  0  0
    0.4759    3.3663   -5.0544 H   0  0  0  0  0  0
    1.2955    4.6544   -3.1125 H   0  0  0  0  0  0
    0.8845    3.8313   -0.8264 H   0  0  0  0  0  0
   -1.1611    0.4074   -2.4430 H   0  0  0  0  0  0
    0.1229    2.2240    0.6416 H   0  0  0  0  0  0
   -0.2495   -0.3699   -0.5397 H   0  0  0  0  0  0
    2.0686    1.1089    0.1445 H   0  0  0  0  0  0
    3.3629    0.9008   -1.6115 H   0  0  0  0  0  0
    1.6551   -0.5157    2.1826 H   0  0  0  0  0  0
    2.1099   -1.7841    1.0749 H   0  0  0  0  0  0
    4.3064   -0.9274    6.9660 H   0  0  0  0  0  0
    4.9197   -2.8805    8.3547 H   0  0  0  0  0  0
    5.5357   -5.0195    7.3296 H   0  0  0  0  0  0
    5.5642   -5.2958    4.8664 H   0  0  0  0  0  0
  1  2  1  0  0  0
  1  3  1  0  0  0
  1 35  1  0  0  0
  1 36  1  0  0  0
  2 14  1  0  0  0
  2 16  1  0  0  0
  2  3  1  0  0  0
  3 37  1  0  0  0
  3 38  1  0  0  0
  4  9  2  0  0  0
  4  5  1  0  0  0
  4 39  1  0  0  0
  5  6  2  0  0  0
  5 40  1  0  0  0
  6  7  1  0  0  0
  6 41  1  0  0  0
  7  8  2  0  0  0
  7 42  1  0  0  0
  8  9  1  0  0  0
  8 10  1  0  0  0
  9 43  1  0  0  0
 10 11  1  0  0  0
 10 19  1  0  0  0
 10 44  1  0  0  0
 11 12  1  0  0  0
 11 45  1  0  0  0
 12 13  1  0  0  0
 12 18  1  0  0  0
 12 46  1  0  0  0
 13 14  1  0  0  0
 13 15  2  0  0  0
 14 47  1  0  0  0
 16 17  3  0  0  0
 18 23  1  0  0  0
 18 48  1  0  0  0
 18 49  1  0  0  0
 19 20  1  0  0  0
 19 21  1  0  0  0
 19 22  1  0  0  0
 23 24  1  0  0  0
 23 25  2  0  0  0
 23 26  2  0  0  0
 24 27  2  0  0  0
 24 28  1  0  0  0
 27 30  1  0  0  0
 28 29  1  0  0  0
 29 30  2  0  0  0
 29 34  1  0  0  0
 30 31  1  0  0  0
 31 32  2  0  0  0
 31 50  1  0  0  0
 32 33  1  0  0  0
 32 51  1  0  0  0
 33 34  2  0  0  0
 33 52  1  0  0  0
 34 53  1  0  0  0
M  END
> <chembl_id>
CHEMBL250919

> <chembl_pref_name>
None

> <i_m_ct_stereo_status>
1

> <s_m_source_file>
sdf/inactives_sanitized.sdf

> <i_m_source_file_index>
295

> <i_lp_mmshare_version>
49012

> <i_f3d_flags>
0

> <s_epik_input>
W2NIXTFbY0hdW2NIXVtjSF1bY0hdYzFbQ0BASF0oQyhGKShGKUYpW05IXVtDQEhdKEMoPU8pW05IXUMyKEMjTilbQ0gyXVtDSDJdMilbQ0gyXVMoPU8pKD1PKWMoczMpbmMoYzM0KVtjSF1bY0hdW2NIXVtjSF00

> <s_epik_cmdline>
J2VwaWtfcHl0aG9uJywgJy1waHQnLCAnMC41JywgJy1waCcsICc3LjUnLCAnLW50JywgJy1tYScsICcyMDAnLCAnLWltYWUnLCAnPGluZmlsZS5tYWU+JywgJy1vbWFlJywgJzxvdXRmaWxlLm1hZT4n

> <r_lp_tautomer_probability>
1

> <r_epik_Ionization_Penalty>
  0.0001

> <r_epik_Ionization_Penalty_Charging>
  0.0000

> <r_epik_Ionization_Penalty_Neutral>
  0.0001

> <r_epik_State_Penalty>
 -0.0000

> <r_epik_Charging_Adjusted_Penalty>
0

> <i_epik_Tot_Q>
0

> <i_epik_Tot_abs_Q>
0

> <s_lp_Force_Field>
OPLS3e

> <r_lp_Energy>
37.963137

> <b_lp_Chiralities_Consistent>
1

> <s_lp_Variant>
sdf/inactives_sanitized.sdf:295-1

$$$$
sdf/inactives_sanitized.sdf:296
                    3D
 Schrodinger Suite 2020-1.
 51 53  0  0  1  0            999 V2000
    5.6695   -0.2780   -2.5840 C   0  0  0  0  0  0
    4.1728   -0.1095   -2.7424 C   0  0  0  0  0  0
    4.8137   -1.4789   -2.8890 C   0  0  0  0  0  0
    0.1502    1.9889   -3.9629 C   0  0  0  0  0  0
    0.6244    3.2971   -3.9060 C   0  0  0  0  0  0
    0.7242    3.9633   -2.6870 C   0  0  0  0  0  0
    0.3478    3.3149   -1.5138 C   0  0  0  0  0  0
   -0.1245    1.9996   -1.5589 C   0  0  0  0  0  0
   -0.2238    1.3396   -2.7902 C   0  0  0  0  0  0
   -0.5329    1.3047   -0.2544 C   0  0  2  0  0  0
    0.0775   -0.0204   -0.0913 N   0  0  2  0  0  0
    1.5537   -0.0405    0.0800 C   0  0  2  0  0  0
    2.2424   -0.4717   -1.2361 C   0  0  0  0  0  0
    3.3858    0.1638   -1.5435 N   0  0  0  0  0  0
    1.7552   -1.3690   -1.9266 O   0  0  0  0  0  0
    3.6676    0.5198   -3.9752 C   0  0  0  0  0  0
    3.2731    1.0136   -4.9444 N   0  0  0  0  0  0
    2.0438   -0.8692    1.2986 C   0  0  0  0  0  0
   -2.0708    1.2028   -0.0905 C   0  0  0  0  0  0
   -2.4032    0.6807    1.0917 F   0  0  0  0  0  0
   -2.6406    2.4069   -0.1548 F   0  0  0  0  0  0
   -2.6350    0.4446   -1.0328 F   0  0  0  0  0  0
    0.9225   -2.3096    1.8175 S   0  0  0  0  0  0
    1.8788   -3.1156    3.0988 C   0  0  0  0  0  0
   -0.2856   -1.7689    2.4518 O   0  0  0  0  0  0
    0.8135   -3.2481    0.6945 O   0  0  0  0  0  0
    2.7537   -4.1527    2.7663 C   0  0  0  0  0  0
    3.5019   -4.7721    3.7638 C   0  0  0  0  0  0
    3.3740   -4.3513    5.0865 C   0  0  0  0  0  0
    2.5039   -3.3149    5.4204 C   0  0  0  0  0  0
    1.7547   -2.6940    4.4247 C   0  0  0  0  0  0
    4.3988   -5.1977    6.4489 Br  0  0  0  0  0  0
    6.3274    0.1055   -3.3647 H   0  0  0  0  0  0
    6.1122   -0.1966   -1.5906 H   0  0  0  0  0  0
    4.6644   -2.2235   -2.1061 H   0  0  0  0  0  0
    4.8753   -1.9272   -3.8811 H   0  0  0  0  0  0
    0.0778    1.4785   -4.9120 H   0  0  0  0  0  0
    0.9174    3.7991   -4.8164 H   0  0  0  0  0  0
    1.0909    4.9785   -2.6522 H   0  0  0  0  0  0
    0.4253    3.8369   -0.5711 H   0  0  0  0  0  0
   -0.5882    0.3237   -2.8401 H   0  0  0  0  0  0
   -0.1760    1.9104    0.5809 H   0  0  0  0  0  0
   -0.1414   -0.5382   -0.9315 H   0  0  0  0  0  0
    1.8873    0.9790    0.2905 H   0  0  0  0  0  0
    3.6883    0.9359   -0.9674 H   0  0  0  0  0  0
    3.0149   -1.3253    1.0986 H   0  0  0  0  0  0
    2.2035   -0.2309    2.1679 H   0  0  0  0  0  0
    2.8578   -4.4792    1.7419 H   0  0  0  0  0  0
    4.1785   -5.5751    3.5111 H   0  0  0  0  0  0
    2.4106   -2.9922    6.4468 H   0  0  0  0  0  0
    1.0841   -1.8884    4.6861 H   0  0  0  0  0  0
  1  2  1  0  0  0
  1  3  1  0  0  0
  1 33  1  0  0  0
  1 34  1  0  0  0
  2 14  1  0  0  0
  2 16  1  0  0  0
  2  3  1  0  0  0
  3 35  1  0  0  0
  3 36  1  0  0  0
  4  9  2  0  0  0
  4  5  1  0  0  0
  4 37  1  0  0  0
  5  6  2  0  0  0
  5 38  1  0  0  0
  6  7  1  0  0  0
  6 39  1  0  0  0
  7  8  2  0  0  0
  7 40  1  0  0  0
  8  9  1  0  0  0
  8 10  1  0  0  0
  9 41  1  0  0  0
 10 11  1  0  0  0
 10 19  1  0  0  0
 10 42  1  0  0  0
 11 12  1  0  0  0
 11 43  1  0  0  0
 12 13  1  0  0  0
 12 18  1  0  0  0
 12 44  1  0  0  0
 13 14  1  0  0  0
 13 15  2  0  0  0
 14 45  1  0  0  0
 16 17  3  0  0  0
 18 23  1  0  0  0
 18 46  1  0  0  0
 18 47  1  0  0  0
 19 20  1  0  0  0
 19 21  1  0  0  0
 19 22  1  0  0  0
 23 24  1  0  0  0
 23 25  2  0  0  0
 23 26  2  0  0  0
 24 27  2  0  0  0
 24 31  1  0  0  0
 27 28  1  0  0  0
 27 48  1  0  0  0
 28 29  2  0  0  0
 28 49  1  0  0  0
 29 30  1  0  0  0
 29 32  1  0  0  0
 30 31  2  0  0  0
 30 50  1  0  0  0
 31 51  1  0  0  0
M  END
> <chembl_id>
CHEMBL250720

> <chembl_pref_name>
None

> <i_m_ct_stereo_status>
1

> <s_m_source_file>
sdf/inactives_sanitized.sdf

> <i_m_source_file_index>
296

> <i_lp_mmshare_version>
49012

> <i_f3d_flags>
0

> <s_epik_input>
W2NIXTFbY0hdYyhCcilbY0hdW2NIXWMxUyg9TykoPU8pW0NIMl1bQ0BASF0oQyg9TylbTkhdQzIoQyNOKVtDSDJdW0NIMl0yKVtOSF1bQ0BIXShDKEYpKEYpRiljM1tjSF1bY0hdW2NIXVtjSF1bY0hdMw==

> <s_epik_cmdline>
J2VwaWtfcHl0aG9uJywgJy1waHQnLCAnMC41JywgJy1waCcsICc3LjUnLCAnLW50JywgJy1tYScsICcyMDAnLCAnLWltYWUnLCAnPGluZmlsZS5tYWU+JywgJy1vbWFlJywgJzxvdXRmaWxlLm1hZT4n

> <r_lp_tautomer_probability>
1

> <r_epik_Ionization_Penalty>
  0.0001

> <r_epik_Ionization_Penalty_Charging>
  0.0000

> <r_epik_Ionization_Penalty_Neutral>
  0.0001

> <r_epik_State_Penalty>
 -0.0000

> <r_epik_Charging_Adjusted_Penalty>
0

> <i_epik_Tot_Q>
0

> <i_epik_Tot_abs_Q>
0

> <s_lp_Force_Field>
OPLS3e

> <r_lp_Energy>
33.276511

> <b_lp_Chiralities_Consistent>
1

> <s_lp_Variant>
sdf/inactives_sanitized.sdf:296-1

$$$$
sdf/inactives_sanitized.sdf:297
                    3D
 Schrodinger Suite 2020-1.
 51 53  0  0  1  0            999 V2000
    3.3550    2.3091   -4.0792 C   0  0  0  0  0  0
    2.9546    2.6028   -2.6443 C   0  0  0  0  0  0
    2.0537    3.0213   -3.7930 C   0  0  0  0  0  0
   -0.6611    3.8462   -1.0343 C   0  0  0  0  0  0
   -1.2353    3.7862   -2.3020 C   0  0  0  0  0  0
   -1.6590    2.5689   -2.8304 C   0  0  0  0  0  0
   -1.5046    1.4022   -2.0868 C   0  0  0  0  0  0
   -0.9250    1.4519   -0.8127 C   0  0  0  0  0  0
   -0.5085    2.6801   -0.2889 C   0  0  0  0  0  0
   -0.7278    0.1759    0.0144 C   0  0  2  0  0  0
    0.1272   -0.8048   -0.6688 N   0  0  1  0  0  0
    1.5794   -0.5127   -0.7724 C   0  0  2  0  0  0
    1.8677    0.3935   -1.9925 C   0  0  0  0  0  0
    2.5599    1.5197   -1.7330 N   0  0  0  0  0  0
    1.4546    0.0628   -3.1046 O   0  0  0  0  0  0
    3.6908    3.6782   -1.9604 C   0  0  0  0  0  0
    4.2692    4.5231   -1.4215 N   0  0  0  0  0  0
    2.5052   -1.7619   -0.7419 C   0  0  0  0  0  0
   -2.0656   -0.4936    0.4239 C   0  0  0  0  0  0
   -1.8546   -1.5008    1.2726 F   0  0  0  0  0  0
   -2.8655    0.3728    1.0469 F   0  0  0  0  0  0
   -2.7430   -0.9871   -0.6148 F   0  0  0  0  0  0
    1.8379   -3.3581   -1.5349 S   0  0  0  0  0  0
    0.5380   -3.9165   -0.4348 C   0  0  0  0  0  0
    1.2255   -3.0263   -2.8263 O   0  0  0  0  0  0
    2.8962   -4.3714   -1.4634 O   0  0  0  0  0  0
   -1.3791    4.9184   -3.0272 F   0  0  0  0  0  0
    0.8623   -4.2672    0.8770 C   0  0  0  0  0  0
   -0.1366   -4.7046    1.7426 C   0  0  0  0  0  0
   -1.4521   -4.7949    1.2914 C   0  0  0  0  0  0
   -1.7780   -4.4498   -0.0189 C   0  0  0  0  0  0
   -0.7818   -4.0088   -0.8858 C   0  0  0  0  0  0
   -2.4212   -5.2206    2.1328 F   0  0  0  0  0  0
    4.1721    2.8795   -4.5219 H   0  0  0  0  0  0
    3.3204    1.2870   -4.4565 H   0  0  0  0  0  0
    1.1186    2.4920   -3.9740 H   0  0  0  0  0  0
    1.9746    4.0814   -4.0356 H   0  0  0  0  0  0
   -0.3338    4.7934   -0.6316 H   0  0  0  0  0  0
   -2.0990    2.5283   -3.8159 H   0  0  0  0  0  0
   -1.8207    0.4597   -2.5091 H   0  0  0  0  0  0
   -0.0580    2.7340    0.6915 H   0  0  0  0  0  0
   -0.2260    0.4450    0.9458 H   0  0  0  0  0  0
   -0.0741   -1.7485   -0.3692 H   0  0  0  0  0  0
    1.8502    0.0376    0.1321 H   0  0  0  0  0  0
    2.8372    1.6661   -0.7731 H   0  0  0  0  0  0
    3.4272   -1.5619   -1.2908 H   0  0  0  0  0  0
    2.8352   -1.9876    0.2722 H   0  0  0  0  0  0
    1.8829   -4.2015    1.2249 H   0  0  0  0  0  0
    0.1077   -4.9750    2.7593 H   0  0  0  0  0  0
   -2.8001   -4.5212   -0.3607 H   0  0  0  0  0  0
   -1.0415   -3.7412   -1.8996 H   0  0  0  0  0  0
  1  2  1  0  0  0
  1  3  1  0  0  0
  1 34  1  0  0  0
  1 35  1  0  0  0
  2 14  1  0  0  0
  2 16  1  0  0  0
  2  3  1  0  0  0
  3 36  1  0  0  0
  3 37  1  0  0  0
  4  9  2  0  0  0
  4  5  1  0  0  0
  4 38  1  0  0  0
  5 27  1  0  0  0
  5  6  2  0  0  0
  6  7  1  0  0  0
  6 39  1  0  0  0
  7  8  2  0  0  0
  7 40  1  0  0  0
  8  9  1  0  0  0
  8 10  1  0  0  0
  9 41  1  0  0  0
 10 11  1  0  0  0
 10 19  1  0  0  0
 10 42  1  0  0  0
 11 12  1  0  0  0
 11 43  1  0  0  0
 12 13  1  0  0  0
 12 18  1  0  0  0
 12 44  1  0  0  0
 13 14  1  0  0  0
 13 15  2  0  0  0
 14 45  1  0  0  0
 16 17  3  0  0  0
 18 23  1  0  0  0
 18 46  1  0  0  0
 18 47  1  0  0  0
 19 20  1  0  0  0
 19 21  1  0  0  0
 19 22  1  0  0  0
 23 24  1  0  0  0
 23 25  2  0  0  0
 23 26  2  0  0  0
 24 28  2  0  0  0
 24 32  1  0  0  0
 28 29  1  0  0  0
 28 48  1  0  0  0
 29 30  2  0  0  0
 29 49  1  0  0  0
 30 31  1  0  0  0
 30 33  1  0  0  0
 31 32  2  0  0  0
 31 50  1  0  0  0
 32 51  1  0  0  0
M  END
> <chembl_id>
CHEMBL251114

> <chembl_pref_name>
None

> <i_m_ct_stereo_status>
1

> <s_m_source_file>
sdf/inactives_sanitized.sdf

> <i_m_source_file_index>
297

> <i_lp_mmshare_version>
49012

> <i_f3d_flags>
0

> <s_epik_input>
RmMxW2NIXVtjSF1jKFtjSF1bY0hdMSlbQ0BASF0oQyhGKShGKUYpW05IXVtDQEhdKEMoPU8pW05IXUMyKEMjTilbQ0gyXVtDSDJdMilbQ0gyXVMoPU8pKD1PKWMzW2NIXVtjSF1jKEYpW2NIXVtjSF0z

> <s_epik_cmdline>
J2VwaWtfcHl0aG9uJywgJy1waHQnLCAnMC41JywgJy1waCcsICc3LjUnLCAnLW50JywgJy1tYScsICcyMDAnLCAnLWltYWUnLCAnPGluZmlsZS5tYWU+JywgJy1vbWFlJywgJzxvdXRmaWxlLm1hZT4n

> <r_lp_tautomer_probability>
1

> <r_epik_Ionization_Penalty>
  0.0001

> <r_epik_Ionization_Penalty_Charging>
  0.0000

> <r_epik_Ionization_Penalty_Neutral>
  0.0001

> <r_epik_State_Penalty>
 -0.0000

> <r_epik_Charging_Adjusted_Penalty>
0

> <i_epik_Tot_Q>
0

> <i_epik_Tot_abs_Q>
0

> <s_lp_Force_Field>
OPLS3e

> <r_lp_Energy>
33.172577

> <b_lp_Chiralities_Consistent>
1

> <s_lp_Variant>
sdf/inactives_sanitized.sdf:297-1

$$$$
sdf/inactives_sanitized.sdf:298
                    3D
 Schrodinger Suite 2020-1.
 60 61  0  0  1  0            999 V2000
    1.1946    3.3883    5.1348 C   0  0  0  0  0  0
    1.0051    4.1470    6.2922 C   0  0  0  0  0  0
   -0.0015    5.1073    6.3516 C   0  0  0  0  0  0
   -0.8273    5.3139    5.2507 C   0  0  0  0  0  0
   -0.6461    4.5611    4.0919 C   0  0  0  0  0  0
    0.3685    3.5922    4.0063 C   0  0  0  0  0  0
   -0.1800    5.8448    7.4915 O   0  0  0  0  0  0
    2.2146    2.4685    5.1497 O   0  0  0  0  0  0
    0.5023    2.7732    2.7514 C   0  0  0  0  0  0
    0.0753    3.4508    1.4306 C   0  0  0  0  0  0
    1.0385    1.6653    2.7227 O   0  0  0  0  0  0
    0.4832    2.7531    0.1081 C   0  0  0  0  0  0
   -0.1375    1.3679   -0.1111 C   0  0  0  0  0  0
   -1.5270    1.3085   -0.2615 C   0  0  0  0  0  0
   -2.1715    0.0972   -0.4854 C   0  0  0  0  0  0
   -1.4334   -1.0791   -0.5710 C   0  0  0  0  0  0
   -0.0407   -1.0442   -0.4274 C   0  0  0  0  0  0
    0.6216    0.1777   -0.1916 C   0  0  0  0  0  0
   -2.0945   -2.2603   -0.8013 O   0  0  0  0  0  0
    0.6686   -2.2181   -0.5333 O   0  0  0  0  0  0
    2.1485    0.1835   -0.0465 C   0  0  0  0  0  0
    2.8313    0.3663   -1.3928 C   0  0  0  0  0  0
    3.6394   -0.4938   -2.0511 C   0  0  0  0  0  0
    4.1921   -0.1378   -3.4289 C   0  0  0  0  0  0
    4.0737   -1.8592   -1.5300 C   0  0  0  0  0  0
    3.6161   -0.9738   -4.5903 C   0  0  0  0  0  0
    2.0940   -1.0075   -4.6402 C   0  0  0  0  0  0
    1.2741   -0.2761   -5.4241 C   0  0  0  0  0  0
   -0.2344   -0.4462   -5.3587 C   0  0  0  0  0  0
    1.7408    0.7802   -6.4155 C   0  0  0  0  0  0
    1.6426    3.9909    7.1509 H   0  0  0  0  0  0
   -1.6141    6.0531    5.2900 H   0  0  0  0  0  0
   -1.3197    4.7445    3.2678 H   0  0  0  0  0  0
   -0.9014    6.4739    7.4201 H   0  0  0  0  0  0
    2.6874    2.4454    5.9844 H   0  0  0  0  0  0
   -1.0036    3.6040    1.4386 H   0  0  0  0  0  0
    0.5129    4.4495    1.4305 H   0  0  0  0  0  0
    0.1425    3.3803   -0.7168 H   0  0  0  0  0  0
    1.5647    2.7635   -0.0084 H   0  0  0  0  0  0
   -2.1172    2.2117   -0.2076 H   0  0  0  0  0  0
   -3.2457    0.0781   -0.5978 H   0  0  0  0  0  0
   -3.0449   -2.1477   -0.8748 H   0  0  0  0  0  0
    0.1021   -2.9741   -0.7038 H   0  0  0  0  0  0
    2.4884    0.9680    0.6261 H   0  0  0  0  0  0
    2.4658   -0.7261    0.4572 H   0  0  0  0  0  0
    2.6110    1.3145   -1.8624 H   0  0  0  0  0  0
    4.0025    0.9167   -3.6382 H   0  0  0  0  0  0
    5.2782   -0.2367   -3.4065 H   0  0  0  0  0  0
    5.1610   -1.9368   -1.5426 H   0  0  0  0  0  0
    3.6666   -2.6487   -2.1616 H   0  0  0  0  0  0
    3.7511   -2.0678   -0.5132 H   0  0  0  0  0  0
    4.0257   -0.6155   -5.5337 H   0  0  0  0  0  0
    3.9608   -2.0054   -4.5114 H   0  0  0  0  0  0
    1.6488   -1.7178   -3.9573 H   0  0  0  0  0  0
   -0.6238   -0.7557   -6.3290 H   0  0  0  0  0  0
   -0.7117    0.4920   -5.0743 H   0  0  0  0  0  0
   -0.5286   -1.2007   -4.6273 H   0  0  0  0  0  0
    1.5079    0.4681   -7.4336 H   0  0  0  0  0  0
    2.8102    0.9764   -6.3654 H   0  0  0  0  0  0
    1.2336    1.7257   -6.2222 H   0  0  0  0  0  0
  1  8  1  0  0  0
  1  6  2  0  0  0
  1  2  1  0  0  0
  2  3  2  0  0  0
  2 31  1  0  0  0
  3  4  1  0  0  0
  3  7  1  0  0  0
  4  5  2  0  0  0
  4 32  1  0  0  0
  5  6  1  0  0  0
  5 33  1  0  0  0
  6  9  1  0  0  0
  7 34  1  0  0  0
  8 35  1  0  0  0
  9 10  1  0  0  0
  9 11  2  0  0  0
 10 12  1  0  0  0
 10 36  1  0  0  0
 10 37  1  0  0  0
 12 13  1  0  0  0
 12 38  1  0  0  0
 12 39  1  0  0  0
 13 18  2  0  0  0
 13 14  1  0  0  0
 14 15  2  0  0  0
 14 40  1  0  0  0
 15 16  1  0  0  0
 15 41  1  0  0  0
 16 17  2  0  0  0
 16 19  1  0  0  0
 17 18  1  0  0  0
 17 20  1  0  0  0
 18 21  1  0  0  0
 19 42  1  0  0  0
 20 43  1  0  0  0
 21 22  1  0  0  0
 21 44  1  0  0  0
 21 45  1  0  0  0
 22 23  2  0  0  0
 22 46  1  0  0  0
 23 24  1  0  0  0
 23 25  1  0  0  0
 24 26  1  0  0  0
 24 47  1  0  0  0
 24 48  1  0  0  0
 25 49  1  0  0  0
 25 50  1  0  0  0
 25 51  1  0  0  0
 26 27  1  0  0  0
 26 52  1  0  0  0
 26 53  1  0  0  0
 27 28  2  3  0  0
 27 54  1  0  0  0
 28 29  1  0  0  0
 28 30  1  0  0  0
 29 55  1  0  0  0
 29 56  1  0  0  0
 29 57  1  0  0  0
 30 58  1  0  0  0
 30 59  1  0  0  0
 30 60  1  0  0  0
M  END
> <chembl_id>
CHEMBL523392

> <chembl_pref_name>
None

> <s_m_source_file>
sdf/inactives_sanitized.sdf

> <i_m_source_file_index>
298

> <i_lp_mmshare_version>
49012

> <i_m_ct_stereo_status>
1

> <i_f3d_flags>
0

> <s_epik_input>
W09IXWMxW2NIXWMoW09IXSlbY0hdW2NIXWMxQyg9TylbQ0gyXVtDSDJdYzJbY0hdW2NIXWMoW09IXSljKFtPSF0pYzJbQ0gyXS9bQ0hdPUMoW0NIM10pL1tDSDJdW0NIMl1bQ0hdPUMoW0NIM10pW0NIM10=

> <s_epik_cmdline>
J2VwaWtfcHl0aG9uJywgJy1waHQnLCAnMC41JywgJy1waCcsICc3LjUnLCAnLW50JywgJy1tYScsICcyMDAnLCAnLWltYWUnLCAnPGluZmlsZS5tYWU+JywgJy1vbWFlJywgJzxvdXRmaWxlLm1hZT4n

> <r_lp_tautomer_probability>
0.999900004999526

> <r_epik_Ionization_Penalty>
  0.3627

> <r_epik_Ionization_Penalty_Charging>
  0.0000

> <r_epik_Ionization_Penalty_Neutral>
  0.3627

> <r_epik_State_Penalty>
  0.3227

> <r_epik_Charging_Adjusted_Penalty>
0.322725392722802

> <i_epik_Tot_Q>
0

> <i_epik_Tot_abs_Q>
0

> <s_lp_Force_Field>
OPLS3e

> <r_lp_Energy>
16.661745

> <b_lp_Chiralities_Consistent>
1

> <s_lp_Variant>
sdf/inactives_sanitized.sdf:298-1

$$$$
sdf/inactives_sanitized.sdf:298
                    3D
 Schrodinger Suite 2020-1.
 59 60  0  0  1  0            999 V2000
   -0.6177    7.0562   -0.6484 C   0  0  0  0  0  0
   -0.3180    7.5716   -1.9137 C   0  0  0  0  0  0
   -0.0760    6.7204   -2.9877 C   0  0  0  0  0  0
   -0.1309    5.3438   -2.8047 C   0  0  0  0  0  0
   -0.4232    4.8179   -1.5488 C   0  0  0  0  0  0
   -0.6805    5.6535   -0.4465 C   0  0  0  0  0  0
    0.2165    7.2338   -4.2228 O   0  0  0  0  0  0
   -0.8374    7.9061    0.2748 O   0  5  0  0  0  0
   -0.9542    5.0208    0.8987 C   0  0  0  0  0  0
   -1.5369    3.5977    0.9259 C   0  0  0  0  0  0
   -0.8384    5.6067    1.9756 O   0  0  0  0  0  0
   -0.4487    2.5185    1.1409 C   0  0  0  0  0  0
   -0.8827    1.0729    0.8491 C   0  0  0  0  0  0
   -2.2265    0.7113    1.0169 C   0  0  0  0  0  0
   -2.6579   -0.5859    0.7616 C   0  0  0  0  0  0
   -1.7526   -1.5515    0.3337 C   0  0  0  0  0  0
   -0.4030   -1.2193    0.1660 C   0  0  0  0  0  0
    0.0449    0.0906    0.4286 C   0  0  0  0  0  0
   -2.2075   -2.8225    0.0836 O   0  0  0  0  0  0
    0.4730   -2.1882   -0.2655 O   0  0  0  0  0  0
    1.5301    0.4272    0.2440 C   0  0  0  0  0  0
    1.8179    0.9960   -1.1398 C   0  0  0  0  0  0
    2.6358    0.5154   -2.1057 C   0  0  0  0  0  0
    2.8245    1.2116   -3.4578 C   0  0  0  0  0  0
    3.4540   -0.7643   -1.9780 C   0  0  0  0  0  0
    1.9834    2.4772   -3.7309 C   0  0  0  0  0  0
    2.1909    3.0610   -5.1201 C   0  0  0  0  0  0
    2.7868    4.2265   -5.4550 C   0  0  0  0  0  0
    2.8808    4.6713   -6.9048 C   0  0  0  0  0  0
    3.4210    5.1994   -4.4697 C   0  0  0  0  0  0
   -0.2725    8.6408   -2.0702 H   0  0  0  0  0  0
    0.0563    4.6772   -3.6336 H   0  0  0  0  0  0
   -0.4380    3.7420   -1.4580 H   0  0  0  0  0  0
    0.3690    6.5486   -4.8774 H   0  0  0  0  0  0
   -2.2653    3.5529    1.7363 H   0  0  0  0  0  0
   -2.0963    3.4197    0.0072 H   0  0  0  0  0  0
    0.4021    2.7800    0.5148 H   0  0  0  0  0  0
   -0.0924    2.5536    2.1715 H   0  0  0  0  0  0
   -2.9558    1.4334    1.3519 H   0  0  0  0  0  0
   -3.7000   -0.8368    0.8971 H   0  0  0  0  0  0
   -3.1506   -2.9178    0.2347 H   0  0  0  0  0  0
    0.0402   -3.0320   -0.4153 H   0  0  0  0  0  0
    1.8470    1.1576    0.9880 H   0  0  0  0  0  0
    2.1422   -0.4418    0.4715 H   0  0  0  0  0  0
    1.2823    1.9118   -1.3320 H   0  0  0  0  0  0
    3.8817    1.4627   -3.5572 H   0  0  0  0  0  0
    2.6118    0.4791   -4.2384 H   0  0  0  0  0  0
    4.5183   -0.5325   -2.0252 H   0  0  0  0  0  0
    3.2162   -1.4440   -2.7968 H   0  0  0  0  0  0
    3.2836   -1.3124   -1.0549 H   0  0  0  0  0  0
    0.9230    2.2352   -3.6469 H   0  0  0  0  0  0
    2.1739    3.2228   -2.9619 H   0  0  0  0  0  0
    1.7889    2.4479   -5.9141 H   0  0  0  0  0  0
    2.3950    5.6385   -7.0375 H   0  0  0  0  0  0
    2.3995    3.9639   -7.5815 H   0  0  0  0  0  0
    3.9241    4.7613   -7.2086 H   0  0  0  0  0  0
    2.8663    6.1377   -4.4605 H   0  0  0  0  0  0
    4.4485    5.4140   -4.7646 H   0  0  0  0  0  0
    3.4555    4.8304   -3.4473 H   0  0  0  0  0  0
  1  8  1  0  0  0
  1  6  2  0  0  0
  1  2  1  0  0  0
  2  3  2  0  0  0
  2 31  1  0  0  0
  3  4  1  0  0  0
  3  7  1  0  0  0
  4  5  2  0  0  0
  4 32  1  0  0  0
  5  6  1  0  0  0
  5 33  1  0  0  0
  6  9  1  0  0  0
  7 34  1  0  0  0
  9 10  1  0  0  0
  9 11  2  0  0  0
 10 12  1  0  0  0
 10 35  1  0  0  0
 10 36  1  0  0  0
 12 13  1  0  0  0
 12 37  1  0  0  0
 12 38  1  0  0  0
 13 18  2  0  0  0
 13 14  1  0  0  0
 14 15  2  0  0  0
 14 39  1  0  0  0
 15 16  1  0  0  0
 15 40  1  0  0  0
 16 17  2  0  0  0
 16 19  1  0  0  0
 17 18  1  0  0  0
 17 20  1  0  0  0
 18 21  1  0  0  0
 19 41  1  0  0  0
 20 42  1  0  0  0
 21 22  1  0  0  0
 21 43  1  0  0  0
 21 44  1  0  0  0
 22 23  2  0  0  0
 22 45  1  0  0  0
 23 24  1  0  0  0
 23 25  1  0  0  0
 24 26  1  0  0  0
 24 46  1  0  0  0
 24 47  1  0  0  0
 25 48  1  0  0  0
 25 49  1  0  0  0
 25 50  1  0  0  0
 26 27  1  0  0  0
 26 51  1  0  0  0
 26 52  1  0  0  0
 27 28  2  3  0  0
 27 53  1  0  0  0
 28 29  1  0  0  0
 28 30  1  0  0  0
 29 54  1  0  0  0
 29 55  1  0  0  0
 29 56  1  0  0  0
 30 57  1  0  0  0
 30 58  1  0  0  0
 30 59  1  0  0  0
M  CHG  1   8  -1
M  END
> <chembl_id>
CHEMBL523392

> <chembl_pref_name>
None

> <s_m_source_file>
sdf/inactives_sanitized.sdf

> <i_m_source_file_index>
298

> <i_lp_mmshare_version>
49012

> <i_m_ct_stereo_status>
1

> <i_f3d_flags>
0

> <s_epik_input>
W09IXWMxW2NIXWMoW09IXSlbY0hdW2NIXWMxQyg9TylbQ0gyXVtDSDJdYzJbY0hdW2NIXWMoW09IXSljKFtPSF0pYzJbQ0gyXS9bQ0hdPUMoW0NIM10pL1tDSDJdW0NIMl1bQ0hdPUMoW0NIM10pW0NIM10=

> <s_epik_cmdline>
J2VwaWtfcHl0aG9uJywgJy1waHQnLCAnMC41JywgJy1waCcsICc3LjUnLCAnLW50JywgJy1tYScsICcyMDAnLCAnLWltYWUnLCAnPGluZmlsZS5tYWU+JywgJy1vbWFlJywgJzxvdXRmaWxlLm1hZT4n

> <r_lp_tautomer_probability>
0.999900004999526

> <r_epik_Ionization_Penalty>
  0.5609

> <r_epik_Ionization_Penalty_Charging>
  0.5569

> <r_epik_Ionization_Penalty_Neutral>
  0.0041

> <r_epik_State_Penalty>
  0.6037

> <r_epik_Charging_Adjusted_Penalty>
1.16057327367932

> <i_epik_Tot_Q>
-1

> <i_epik_Tot_abs_Q>
1

> <s_lp_Force_Field>
OPLS3e

> <r_lp_Energy>
18.343167

> <b_lp_Chiralities_Consistent>
1

> <s_lp_Variant>
sdf/inactives_sanitized.sdf:298-2

$$$$
sdf/inactives_sanitized.sdf:299
                    3D
 Schrodinger Suite 2020-1.
 43 44  0  0  1  0            999 V2000
    0.8068   -2.7100    2.4694 C   0  0  0  0  0  0
    1.2805   -4.0230    2.4877 C   0  0  0  0  0  0
    0.9660   -4.8925    1.4429 C   0  0  0  0  0  0
    0.1761   -4.4500    0.3825 C   0  0  0  0  0  0
   -0.2966   -3.1379    0.3638 C   0  0  0  0  0  0
    0.0225   -2.2553    1.4031 C   0  0  0  0  0  0
   -0.4801   -0.8121    1.3814 C   0  0  0  0  0  0
   -0.0609   -0.0274    0.1070 C   0  0  2  0  0  0
    1.3970    0.0607   -0.0333 N   0  0  0  0  0  0
   -0.6533    1.3952    0.1242 C   0  0  0  0  0  0
   -0.2213    2.2313    0.9201 O   0  0  0  0  0  0
   -1.6631    1.6328   -0.7295 N   0  0  0  0  0  0
   -2.3093    2.9319   -0.8865 C   0  0  0  0  0  0
   -1.4103    3.9514   -1.4562 C   0  0  0  0  0  0
   -0.7042    4.7515   -1.9039 N   0  0  0  0  0  0
    2.1549   -0.6579   -0.8817 C   0  0  0  0  0  0
    1.7075   -1.4935   -1.6687 O   0  0  0  0  0  0
    3.5689   -0.3716   -0.7878 C   0  0  0  0  0  0
    2.2590   -4.5692    3.8003 Cl  0  0  0  0  0  0
    4.5504   -0.7491   -1.6859 N   0  0  0  0  0  0
    5.7871   -0.4175   -1.2826 N   0  0  0  0  0  0
    5.6419    0.1685   -0.1167 C   0  0  0  0  0  0
    4.2935    0.2071    0.2512 C   0  0  0  0  0  0
    4.4113   -1.4620   -2.9523 C   0  0  0  0  0  0
    6.8499    0.6748    0.6356 C   0  0  0  0  0  0
    1.0598   -2.0429    3.2811 H   0  0  0  0  0  0
    1.3322   -5.9087    1.4515 H   0  0  0  0  0  0
   -0.0675   -5.1230   -0.4264 H   0  0  0  0  0  0
   -0.9065   -2.8096   -0.4649 H   0  0  0  0  0  0
   -1.5668   -0.8404    1.4792 H   0  0  0  0  0  0
   -0.1190   -0.2912    2.2711 H   0  0  0  0  0  0
   -0.4756   -0.5477   -0.7593 H   0  0  0  0  0  0
    1.8466    0.7396    0.5636 H   0  0  0  0  0  0
   -1.9532    0.9010   -1.3621 H   0  0  0  0  0  0
   -3.1628    2.8240   -1.5559 H   0  0  0  0  0  0
   -2.6948    3.2941    0.0680 H   0  0  0  0  0  0
    3.8975    0.6095    1.1723 H   0  0  0  0  0  0
    3.6243   -0.9970   -3.5469 H   0  0  0  0  0  0
    4.1488   -2.5011   -2.7514 H   0  0  0  0  0  0
    5.3412   -1.4323   -3.5233 H   0  0  0  0  0  0
    6.5714    1.1619    1.5704 H   0  0  0  0  0  0
    7.4130    1.4041    0.0524 H   0  0  0  0  0  0
    7.5354   -0.1344    0.8895 H   0  0  0  0  0  0
  1  6  2  0  0  0
  1  2  1  0  0  0
  1 26  1  0  0  0
  2 19  1  0  0  0
  2  3  2  0  0  0
  3  4  1  0  0  0
  3 27  1  0  0  0
  4  5  2  0  0  0
  4 28  1  0  0  0
  5  6  1  0  0  0
  5 29  1  0  0  0
  6  7  1  0  0  0
  7  8  1  0  0  0
  7 30  1  0  0  0
  7 31  1  0  0  0
  8  9  1  0  0  0
  8 10  1  0  0  0
  8 32  1  0  0  0
  9 16  1  0  0  0
  9 33  1  0  0  0
 10 11  2  0  0  0
 10 12  1  0  0  0
 12 13  1  0  0  0
 12 34  1  0  0  0
 13 14  1  0  0  0
 13 35  1  0  0  0
 13 36  1  0  0  0
 14 15  3  0  0  0
 16 17  2  0  0  0
 16 18  1  0  0  0
 18 20  1  0  0  0
 18 23  2  0  0  0
 20 21  1  0  0  0
 20 24  1  0  0  0
 21 22  2  0  0  0
 22 23  1  0  0  0
 22 25  1  0  0  0
 23 37  1  0  0  0
 24 38  1  0  0  0
 24 39  1  0  0  0
 24 40  1  0  0  0
 25 41  1  0  0  0
 25 42  1  0  0  0
 25 43  1  0  0  0
M  END
> <chembl_id>
CHEMBL551059

> <chembl_pref_name>
None

> <i_m_ct_stereo_status>
1

> <s_m_source_file>
sdf/inactives_sanitized.sdf

> <i_m_source_file_index>
299

> <i_lp_mmshare_version>
49012

> <i_f3d_flags>
0

> <s_epik_input>
W2NIXTFbY0hdW2NIXWMoW2NIXWMxQ2wpW0NIMl1bQ0BASF0oQyg9TylbTkhdW0NIMl1DI04pW05IXUMoPU8pYzJuKFtDSDNdKW5jKFtjSF0yKVtDSDNd

> <s_epik_cmdline>
J2VwaWtfcHl0aG9uJywgJy1waHQnLCAnMC41JywgJy1waCcsICc3LjUnLCAnLW50JywgJy1tYScsICcyMDAnLCAnLWltYWUnLCAnPGluZmlsZS5tYWU+JywgJy1vbWFlJywgJzxvdXRmaWxlLm1hZT4n

> <r_lp_tautomer_probability>
1

> <r_epik_Ionization_Penalty>
  0.0000

> <r_epik_Ionization_Penalty_Charging>
  0.0000

> <r_epik_Ionization_Penalty_Neutral>
  0.0000

> <r_epik_State_Penalty>
 -0.0000

> <r_epik_Charging_Adjusted_Penalty>
0

> <i_epik_Tot_Q>
0

> <i_epik_Tot_abs_Q>
0

> <s_lp_Force_Field>
OPLS3e

> <r_lp_Energy>
15.622272

> <b_lp_Chiralities_Consistent>
1

> <s_lp_Variant>
sdf/inactives_sanitized.sdf:299-1

$$$$
sdf/inactives_sanitized.sdf:300
                    3D
 Schrodinger Suite 2020-1.
 42 43  0  0  1  0            999 V2000
    0.7202   -2.7019    2.5401 C   0  0  0  0  0  0
    1.2254   -4.0021    2.5925 C   0  0  0  0  0  0
    0.9933   -4.8835    1.5361 C   0  0  0  0  0  0
    0.2546   -4.4656    0.4298 C   0  0  0  0  0  0
   -0.2499   -3.1662    0.3774 C   0  0  0  0  0  0
   -0.0135   -2.2718    1.4285 C   0  0  0  0  0  0
   -0.5507   -0.8420    1.3723 C   0  0  0  0  0  0
   -0.0954   -0.0551    0.1117 C   0  0  2  0  0  0
    1.3648    0.0492    0.0218 N   0  0  0  0  0  0
   -0.6951    1.3643    0.1063 C   0  0  0  0  0  0
   -0.3472    2.1801    0.9622 O   0  0  0  0  0  0
   -1.6152    1.6234   -0.8379 N   0  0  0  0  0  0
   -2.2537    2.9234   -1.0189 C   0  0  0  0  0  0
   -1.3076    3.9739   -1.4360 C   0  0  0  0  0  0
   -0.5647    4.7984   -1.7639 N   0  0  0  0  0  0
    2.1597   -0.6360   -0.8215 C   0  0  0  0  0  0
    1.7419   -1.4509   -1.6445 O   0  0  0  0  0  0
    3.5723   -0.3542   -0.6931 C   0  0  0  0  0  0
    2.1409   -4.5176    3.9618 Cl  0  0  0  0  0  0
    4.2624    0.3279    0.7652 S   0  0  0  0  0  0
    5.8361    0.2015    0.0540 C   0  0  0  0  0  0
    5.8305   -0.3244   -1.1453 N   0  0  0  0  0  0
    4.6237   -0.6461   -1.5774 C   0  0  0  0  0  0
    7.0999    0.6497    0.7495 C   0  0  0  0  0  0
    4.5853   -1.2710   -2.9599 C   0  0  0  0  0  0
    0.9094   -2.0255    3.3612 H   0  0  0  0  0  0
    1.3833   -5.8903    1.5720 H   0  0  0  0  0  0
    0.0737   -5.1482   -0.3874 H   0  0  0  0  0  0
   -0.8207   -2.8578   -0.4859 H   0  0  0  0  0  0
   -1.6397   -0.8940    1.4236 H   0  0  0  0  0  0
   -0.2390   -0.3075    2.2724 H   0  0  0  0  0  0
   -0.4737   -0.5801   -0.7680 H   0  0  0  0  0  0
    1.7872    0.7116    0.6559 H   0  0  0  0  0  0
   -1.8355    0.9098   -1.5176 H   0  0  0  0  0  0
   -3.0198    2.8371   -1.7893 H   0  0  0  0  0  0
   -2.7543    3.2409   -0.1027 H   0  0  0  0  0  0
    7.9918    0.4878    0.1426 H   0  0  0  0  0  0
    7.2505    0.1136    1.6866 H   0  0  0  0  0  0
    7.0666    1.7127    0.9888 H   0  0  0  0  0  0
    3.5883   -1.2730   -3.3983 H   0  0  0  0  0  0
    4.9243   -2.3071   -2.9383 H   0  0  0  0  0  0
    5.2237   -0.7405   -3.6679 H   0  0  0  0  0  0
  1  6  2  0  0  0
  1  2  1  0  0  0
  1 26  1  0  0  0
  2 19  1  0  0  0
  2  3  2  0  0  0
  3  4  1  0  0  0
  3 27  1  0  0  0
  4  5  2  0  0  0
  4 28  1  0  0  0
  5  6  1  0  0  0
  5 29  1  0  0  0
  6  7  1  0  0  0
  7  8  1  0  0  0
  7 30  1  0  0  0
  7 31  1  0  0  0
  8  9  1  0  0  0
  8 10  1  0  0  0
  8 32  1  0  0  0
  9 16  1  0  0  0
  9 33  1  0  0  0
 10 11  2  0  0  0
 10 12  1  0  0  0
 12 13  1  0  0  0
 12 34  1  0  0  0
 13 14  1  0  0  0
 13 35  1  0  0  0
 13 36  1  0  0  0
 14 15  3  0  0  0
 16 17  2  0  0  0
 16 18  1  0  0  0
 18 20  1  0  0  0
 18 23  2  0  0  0
 20 21  1  0  0  0
 21 22  2  0  0  0
 21 24  1  0  0  0
 22 23  1  0  0  0
 23 25  1  0  0  0
 24 37  1  0  0  0
 24 38  1  0  0  0
 24 39  1  0  0  0
 25 40  1  0  0  0
 25 41  1  0  0  0
 25 42  1  0  0  0
M  END
> <chembl_id>
CHEMBL551060

> <chembl_pref_name>
None

> <i_m_ct_stereo_status>
1

> <s_m_source_file>
sdf/inactives_sanitized.sdf

> <i_m_source_file_index>
300

> <i_lp_mmshare_version>
49012

> <i_f3d_flags>
0

> <s_epik_input>
W2NIXTFbY0hdW2NIXWMoW2NIXWMxQ2wpW0NIMl1bQ0BASF0oQyg9TylbTkhdW0NIMl1DI04pW05IXUMoPU8pYzJzYyhbQ0gzXSluYzJbQ0gzXQ==

> <s_epik_cmdline>
J2VwaWtfcHl0aG9uJywgJy1waHQnLCAnMC41JywgJy1waCcsICc3LjUnLCAnLW50JywgJy1tYScsICcyMDAnLCAnLWltYWUnLCAnPGluZmlsZS5tYWU+JywgJy1vbWFlJywgJzxvdXRmaWxlLm1hZT4n

> <r_lp_tautomer_probability>
1

> <r_epik_Ionization_Penalty>
  0.0000

> <r_epik_Ionization_Penalty_Charging>
  0.0000

> <r_epik_Ionization_Penalty_Neutral>
  0.0000

> <r_epik_State_Penalty>
 -0.0000

> <r_epik_Charging_Adjusted_Penalty>
0

> <i_epik_Tot_Q>
0

> <i_epik_Tot_abs_Q>
0

> <s_lp_Force_Field>
OPLS3e

> <r_lp_Energy>
14.487676

> <b_lp_Chiralities_Consistent>
1

> <s_lp_Variant>
sdf/inactives_sanitized.sdf:300-1

$$$$
sdf/inactives_sanitized.sdf:301
                    3D
 Schrodinger Suite 2020-1.
 29 31  0  0  1  0            999 V2000
   -1.9170   -1.3023   -1.2911 C   0  0  0  0  0  0
   -0.5290   -0.5797   -1.2504 C   0  0  0  0  0  0
   -0.1206   -0.0409    0.1547 C   0  0  1  0  0  0
   -0.7352   -0.8869    1.3216 C   0  0  1  0  0  0
   -2.1309   -1.9900   -0.0038 N   0  0  0  0  0  0
   -2.2244   -1.0710    1.1149 C   0  0  0  0  0  0
   -1.2199   -2.9540    0.4188 C   0  0  0  0  0  0
   -0.3649   -2.2645    1.2328 O   0  0  0  0  0  0
   -1.0917   -4.1395    0.1211 O   0  0  0  0  0  0
    1.3057   -0.0164    0.2660 O   0  0  0  0  0  0
    1.9371    0.7122    1.2586 C   0  0  0  0  0  0
    3.3240    0.5703    1.3367 C   0  0  0  0  0  0
    4.0546    1.2608    2.2998 C   0  0  0  0  0  0
    3.3951    2.1029    3.1909 C   0  0  0  0  0  0
    2.0134    2.2602    3.1247 C   0  0  0  0  0  0
    1.2840    1.5684    2.1612 C   0  0  0  0  0  0
   -1.9682   -2.0324   -2.1000 H   0  0  0  0  0  0
   -2.7313   -0.5881   -1.4201 H   0  0  0  0  0  0
    0.2260   -1.2941   -1.5829 H   0  0  0  0  0  0
   -0.5344    0.2225   -1.9890 H   0  0  0  0  0  0
   -0.4571    0.9960    0.1985 H   0  0  0  0  0  0
   -0.5043   -0.4763    2.3042 H   0  0  0  0  0  0
   -2.7107   -1.5270    1.9809 H   0  0  0  0  0  0
   -2.7461   -0.1442    0.8710 H   0  0  0  0  0  0
    3.8378   -0.0833    0.6469 H   0  0  0  0  0  0
    5.1268    1.1436    2.3553 H   0  0  0  0  0  0
    3.9600    2.6392    3.9393 H   0  0  0  0  0  0
    1.5088    2.9168    3.8182 H   0  0  0  0  0  0
    0.2153    1.7130    2.1344 H   0  0  0  0  0  0
  1  5  1  0  0  0
  1  2  1  0  0  0
  1 17  1  0  0  0
  1 18  1  0  0  0
  2  3  1  0  0  0
  2 19  1  0  0  0
  2 20  1  0  0  0
  3  4  1  0  0  0
  3 10  1  0  0  0
  3 21  1  0  0  0
  4  6  1  0  0  0
  4  8  1  0  0  0
  4 22  1  0  0  0
  5  6  1  0  0  0
  5  7  1  0  0  0
  6 23  1  0  0  0
  6 24  1  0  0  0
  7  8  1  0  0  0
  7  9  2  0  0  0
 10 11  1  0  0  0
 11 12  2  0  0  0
 11 16  1  0  0  0
 12 13  1  0  0  0
 12 25  1  0  0  0
 13 14  2  0  0  0
 13 26  1  0  0  0
 14 15  1  0  0  0
 14 27  1  0  0  0
 15 16  2  0  0  0
 15 28  1  0  0  0
 16 29  1  0  0  0
M  END
> <chembl_id>
CHEMBL230474

> <chembl_pref_name>
None

> <i_m_ct_stereo_status>
1

> <s_m_source_file>
sdf/inactives_sanitized.sdf

> <i_m_source_file_index>
301

> <i_lp_mmshare_version>
49012

> <i_f3d_flags>
0

> <s_epik_input>
TzFDKD1PKU4oW0NIMl0yKVtDSDJdW0NIMl1bQ0BASF0oW0NIXTEyKU9jM1tjSF1bY0hdW2NIXVtjSF1bY0hdMw==

> <s_epik_cmdline>
J2VwaWtfcHl0aG9uJywgJy1waHQnLCAnMC41JywgJy1waCcsICc3LjUnLCAnLW50JywgJy1tYScsICcyMDAnLCAnLWltYWUnLCAnPGluZmlsZS5tYWU+JywgJy1vbWFlJywgJzxvdXRmaWxlLm1hZT4n

> <r_lp_tautomer_probability>
1

> <r_epik_Ionization_Penalty>
  0.0000

> <r_epik_Ionization_Penalty_Charging>
  0.0000

> <r_epik_Ionization_Penalty_Neutral>
  0.0000

> <r_epik_State_Penalty>
 -0.0000

> <r_epik_Charging_Adjusted_Penalty>
0

> <i_epik_Tot_Q>
0

> <i_epik_Tot_abs_Q>
0

> <s_epik_Chemistry_Notes>
This compound has an ester and may undergo hydrolysis at high or low pH.

> <s_lp_Force_Field>
OPLS3e

> <r_lp_Energy>
36.075997

> <b_lp_Chiralities_Consistent>
1

> <s_lp_Variant>
sdf/inactives_sanitized.sdf:301-1

$$$$
sdf/inactives_sanitized.sdf:302
                    3D
 Schrodinger Suite 2020-1.
 41 42  0  0  1  0            999 V2000
   -0.2306   -0.2685   -2.4253 N   0  0  0  0  0  0
   -0.4675   -0.7227   -1.2028 C   0  0  0  0  0  0
   -0.7885   -0.9915   -3.3692 C   0  0  0  0  0  0
    0.1407    0.0269   -0.0150 C   0  0  2  0  0  0
   -1.6883   -2.3541   -2.7645 S   0  0  0  0  0  0
   -1.2540   -1.8714   -1.1553 C   0  0  0  0  0  0
   -0.3679    1.4851    0.0717 C   0  0  0  0  0  0
   -0.2962    4.7194    2.2974 N   0  0  0  0  0  0
   -1.0328    3.9792    1.7990 C   0  0  0  0  0  0
    1.6971   -0.0343   -0.0198 C   0  0  0  0  0  0
   -0.6673   -0.6936   -4.8387 C   0  0  0  0  0  0
    0.1360    2.3679   -0.6250 O   0  0  0  0  0  0
   -1.3811    1.7223    0.9235 N   0  0  0  0  0  0
   -1.9713    3.0363    1.1647 C   0  0  0  0  0  0
    2.3236   -1.4532    0.0040 C   0  0  0  0  0  0
    0.0972    0.4010   -5.2690 C   0  0  0  0  0  0
   -1.3064   -1.4916   -5.7985 C   0  0  0  0  0  0
    1.9223   -2.2711    1.2473 C   0  0  0  0  0  0
    3.8559   -1.3757   -0.1233 C   0  0  0  0  0  0
   -1.1847   -1.2025   -7.1550 C   0  0  0  0  0  0
    0.2198    0.6911   -6.6254 C   0  0  0  0  0  0
   -0.4223   -0.1122   -7.5631 C   0  0  0  0  0  0
   -0.1923   -0.4676    0.8986 H   0  0  0  0  0  0
   -1.5796   -2.4331   -0.2922 H   0  0  0  0  0  0
    2.0731    0.4922   -0.8999 H   0  0  0  0  0  0
    2.0808    0.5255    0.8359 H   0  0  0  0  0  0
   -1.7219    0.9641    1.4961 H   0  0  0  0  0  0
   -2.8305    2.9218    1.8256 H   0  0  0  0  0  0
   -2.3380    3.4732    0.2344 H   0  0  0  0  0  0
    1.9646   -1.9961   -0.8717 H   0  0  0  0  0  0
    0.6032    1.0359   -4.5560 H   0  0  0  0  0  0
   -1.9038   -2.3426   -5.5081 H   0  0  0  0  0  0
    2.1960   -1.7564    2.1690 H   0  0  0  0  0  0
    2.4141   -3.2446    1.2537 H   0  0  0  0  0  0
    0.8497   -2.4619    1.2763 H   0  0  0  0  0  0
    4.3009   -0.8482    0.7213 H   0  0  0  0  0  0
    4.1518   -0.8520   -1.0330 H   0  0  0  0  0  0
    4.3009   -2.3706   -0.1640 H   0  0  0  0  0  0
   -1.6804   -1.8222   -7.8876 H   0  0  0  0  0  0
    0.8107    1.5359   -6.9478 H   0  0  0  0  0  0
   -0.3281    0.1123   -8.6153 H   0  0  0  0  0  0
  1  2  1  0  0  0
  1  3  2  0  0  0
  2  4  1  0  0  0
  2  6  2  0  0  0
  3  5  1  0  0  0
  3 11  1  0  0  0
  4  7  1  0  0  0
  4 10  1  0  0  0
  4 23  1  0  0  0
  5  6  1  0  0  0
  6 24  1  0  0  0
  7 12  2  0  0  0
  7 13  1  0  0  0
  8  9  3  0  0  0
  9 14  1  0  0  0
 10 15  1  0  0  0
 10 25  1  0  0  0
 10 26  1  0  0  0
 11 16  2  0  0  0
 11 17  1  0  0  0
 13 14  1  0  0  0
 13 27  1  0  0  0
 14 28  1  0  0  0
 14 29  1  0  0  0
 15 18  1  0  0  0
 15 19  1  0  0  0
 15 30  1  0  0  0
 16 21  1  0  0  0
 16 31  1  0  0  0
 17 20  2  0  0  0
 17 32  1  0  0  0
 18 33  1  0  0  0
 18 34  1  0  0  0
 18 35  1  0  0  0
 19 36  1  0  0  0
 19 37  1  0  0  0
 19 38  1  0  0  0
 20 22  1  0  0  0
 20 39  1  0  0  0
 21 22  2  0  0  0
 21 40  1  0  0  0
 22 41  1  0  0  0
M  END
> <chembl_id>
CHEMBL331422

> <chembl_pref_name>
None

> <s_m_source_file>
sdf/inactives_sanitized.sdf

> <i_m_source_file_index>
302

> <i_lp_mmshare_version>
49012

> <i_m_ct_stereo_status>
1

> <i_f3d_flags>
0

> <s_epik_input>
W2NIXTFbY0hdW2NIXVtjSF1bY0hdYzEtYyhzW2NIXTIpbmMyW0NAQEhdKFtDSDJdW0NIXShbQ0gzXSlbQ0gzXSlDKD1PKVtOSF1bQ0gyXUMjTg==

> <s_epik_cmdline>
J2VwaWtfcHl0aG9uJywgJy1waHQnLCAnMC41JywgJy1waCcsICc3LjUnLCAnLW50JywgJy1tYScsICcyMDAnLCAnLWltYWUnLCAnPGluZmlsZS5tYWU+JywgJy1vbWFlJywgJzxvdXRmaWxlLm1hZT4n

> <r_lp_tautomer_probability>
1

> <r_epik_Ionization_Penalty>
  0.0000

> <r_epik_Ionization_Penalty_Charging>
  0.0000

> <r_epik_Ionization_Penalty_Neutral>
  0.0000

> <r_epik_State_Penalty>
 -0.0000

> <r_epik_Charging_Adjusted_Penalty>
0

> <i_epik_Tot_Q>
0

> <i_epik_Tot_abs_Q>
0

> <s_lp_Force_Field>
OPLS3e

> <r_lp_Energy>
14.665116

> <b_lp_Chiralities_Consistent>
1

> <s_lp_Variant>
sdf/inactives_sanitized.sdf:302-1

$$$$
sdf/inactives_sanitized.sdf:303
                    3D
 Schrodinger Suite 2020-1.
 28 29  0  0  1  0            999 V2000
   -2.7321    0.0353   -0.0730 C   0  0  0  0  0  0
   -2.0164   -1.1448    0.0306 N   0  0  0  0  0  0
   -0.6447   -1.2954    0.1947 C   0  0  0  0  0  0
    0.0210   -0.0804    0.0711 N   0  0  0  0  0  0
   -0.5927    1.1743    0.1132 N   0  0  0  0  0  0
   -1.8688    1.2143    0.0185 C   0  0  0  0  0  0
   -0.0771   -2.3760    0.3894 O   0  0  0  0  0  0
   -2.4811    2.5263    0.0119 C   0  0  0  0  0  0
   -2.9335    3.5919   -0.0011 N   0  0  0  0  0  0
   -3.9559    0.1140   -0.2135 O   0  0  0  0  0  0
   -2.8246   -2.3795   -0.0383 C   0  0  0  0  0  0
    1.4381   -0.0324    0.0407 C   0  0  0  0  0  0
    2.1433    0.7878    0.9351 C   0  0  0  0  0  0
    3.5353    0.8405    0.8971 C   0  0  0  0  0  0
    4.2392    0.0797   -0.0345 C   0  0  0  0  0  0
    3.5586   -0.7419   -0.9405 C   0  0  0  0  0  0
    2.1596   -0.7905   -0.8965 C   0  0  0  0  0  0
    4.3322   -1.5728   -1.9635 C   0  0  0  0  0  0
    3.6711   -2.6844   -2.2918 F   0  0  0  0  0  0
    4.5085   -0.8449   -3.0659 F   0  0  0  0  0  0
    5.5296   -1.9294   -1.4952 F   0  0  0  0  0  0
   -2.2351   -3.2964   -0.0809 H   0  0  0  0  0  0
   -3.4531   -2.3768   -0.9304 H   0  0  0  0  0  0
   -3.4815   -2.4509    0.8297 H   0  0  0  0  0  0
    1.6169    1.3824    1.6681 H   0  0  0  0  0  0
    4.0700    1.4724    1.5909 H   0  0  0  0  0  0
    5.3179    0.1362   -0.0510 H   0  0  0  0  0  0
    1.6276   -1.4151   -1.6004 H   0  0  0  0  0  0
  1  6  1  0  0  0
  1  2  1  0  0  0
  1 10  2  0  0  0
  2  3  1  0  0  0
  2 11  1  0  0  0
  3  7  2  0  0  0
  3  4  1  0  0  0
  4 12  1  0  0  0
  4  5  1  0  0  0
  5  6  2  0  0  0
  6  8  1  0  0  0
  8  9  3  0  0  0
 11 22  1  0  0  0
 11 23  1  0  0  0
 11 24  1  0  0  0
 12 13  2  0  0  0
 12 17  1  0  0  0
 13 14  1  0  0  0
 13 25  1  0  0  0
 14 15  2  0  0  0
 14 26  1  0  0  0
 15 16  1  0  0  0
 15 27  1  0  0  0
 16 17  2  0  0  0
 16 18  1  0  0  0
 17 28  1  0  0  0
 18 19  1  0  0  0
 18 20  1  0  0  0
 18 21  1  0  0  0
M  END
> <chembl_id>
CHEMBL1079080

> <chembl_pref_name>
None

> <s_m_source_file>
sdf/inactives_sanitized.sdf

> <i_m_source_file_index>
303

> <i_lp_mmshare_version>
49012

> <i_m_ct_stereo_status>
1

> <i_f3d_flags>
0

> <s_epik_input>
TiNDYzFubihjKD1PKW4oYzE9TylbQ0gzXSktYzJbY0hdW2NIXVtjSF1jKFtjSF0yKUMoRikoRilG

> <s_epik_cmdline>
J2VwaWtfcHl0aG9uJywgJy1waHQnLCAnMC41JywgJy1waCcsICc3LjUnLCAnLW50JywgJy1tYScsICcyMDAnLCAnLWltYWUnLCAnPGluZmlsZS5tYWU+JywgJy1vbWFlJywgJzxvdXRmaWxlLm1hZT4n

> <r_lp_tautomer_probability>
1

> <r_epik_Ionization_Penalty>
  0.0000

> <r_epik_Ionization_Penalty_Charging>
  0.0000

> <r_epik_Ionization_Penalty_Neutral>
  0.0000

> <r_epik_State_Penalty>
 -0.0000

> <r_epik_Charging_Adjusted_Penalty>
8.9696427168917e-13

> <i_epik_Tot_Q>
0

> <i_epik_Tot_abs_Q>
0

> <s_lp_Force_Field>
OPLS3e

> <r_lp_Energy>
52.813571

> <b_lp_Chiralities_Consistent>
1

> <s_lp_Variant>
sdf/inactives_sanitized.sdf:303-1

$$$$
sdf/inactives_sanitized.sdf:304
                    3D
 Schrodinger Suite 2020-1.
 53 56  0  0  1  0            999 V2000
   -1.5796    2.9668   -2.2400 C   0  0  2  0  0  0
   -3.6230    3.4502   -2.4495 N   0  0  0  0  0  0
   -2.7552    3.4663   -1.3531 C   0  0  0  0  0  0
   -2.6442    2.8561   -3.3749 C   0  0  2  0  0  0
   -0.9945    1.7008   -1.7936 N   0  0  0  0  0  0
   -0.1081    1.5720   -0.7914 C   0  0  0  0  0  0
    2.6150   -0.2488   -1.2622 C   0  0  0  0  0  0
    0.2969    0.1255   -0.4277 C   0  0  1  0  0  0
    1.7445   -0.0077   -0.2056 N   0  0  0  0  0  0
   -3.1439    1.5801   -3.6558 O   0  0  0  0  0  0
   -2.9130    3.7124   -0.1586 O   0  0  0  0  0  0
    0.3368    2.5174   -0.1385 O   0  0  0  0  0  0
   -0.4504   -0.4340    0.8105 C   0  0  0  0  0  0
    2.3071   -0.3783   -2.4502 O   0  0  0  0  0  0
    3.8714   -0.3162   -0.7816 O   0  0  0  0  0  0
   -4.8759    2.7439   -2.5488 C   0  0  0  0  0  0
   -4.4558    1.3910   -3.1332 C   0  0  0  0  0  0
    4.9726   -0.5422   -1.6528 C   0  0  0  0  0  0
   -1.9697   -0.4631    0.7170 C   0  0  0  0  0  0
    6.2582   -0.5787   -0.8474 C   0  0  0  0  0  0
   -2.7372    0.6213    1.1936 C   0  0  0  0  0  0
   -2.6148   -1.4941    0.0017 C   0  0  0  0  0  0
    6.8750   -1.8018   -0.5742 C   0  0  0  0  0  0
    6.8209    0.6128   -0.3832 C   0  0  0  0  0  0
    8.0006    0.5808    0.3559 C   0  0  0  0  0  0
   -4.1136    0.6330    1.0117 C   0  0  0  0  0  0
   -3.9930   -1.4661   -0.1667 C   0  0  0  0  0  0
    8.0556   -1.8328    0.1641 C   0  0  0  0  0  0
   -4.7394   -0.4103    0.3414 C   0  0  0  0  0  0
    8.6126   -0.6418    0.6258 C   0  0  0  0  0  0
   -0.7704    3.6783   -2.4168 H   0  0  0  0  0  0
   -2.4699    3.3901   -4.3105 H   0  0  0  0  0  0
   -1.3153    0.8692   -2.2688 H   0  0  0  0  0  0
   -0.0038   -0.5314   -1.2493 H   0  0  0  0  0  0
    2.1110    0.1271    0.7254 H   0  0  0  0  0  0
   -0.1140   -1.4546    1.0020 H   0  0  0  0  0  0
   -0.1706    0.1309    1.7020 H   0  0  0  0  0  0
   -5.3514    2.6291   -1.5737 H   0  0  0  0  0  0
   -5.5860    3.2577   -3.1970 H   0  0  0  0  0  0
   -5.1539    1.0955   -3.9166 H   0  0  0  0  0  0
   -4.4267    0.6371   -2.3464 H   0  0  0  0  0  0
    4.8459   -1.4820   -2.1933 H   0  0  0  0  0  0
    5.0388    0.2494   -2.4012 H   0  0  0  0  0  0
   -2.2569    1.4487    1.6953 H   0  0  0  0  0  0
   -2.0395   -2.3077   -0.4152 H   0  0  0  0  0  0
    6.4427   -2.7256   -0.9307 H   0  0  0  0  0  0
    6.3448    1.5600   -0.5924 H   0  0  0  0  0  0
    8.4390    1.4990    0.7182 H   0  0  0  0  0  0
   -4.6974    1.4618    1.3839 H   0  0  0  0  0  0
   -4.4853   -2.2632   -0.7039 H   0  0  0  0  0  0
    8.5366   -2.7759    0.3784 H   0  0  0  0  0  0
   -5.8100   -0.3923    0.2007 H   0  0  0  0  0  0
    9.5278   -0.6665    1.1988 H   0  0  0  0  0  0
  1  3  1  0  0  0
  1  4  1  0  0  0
  1  5  1  0  0  0
  1 31  1  0  0  0
  2  4  1  0  0  0
  2 16  1  0  0  0
  2  3  1  0  0  0
  3 11  2  0  0  0
  4 10  1  0  0  0
  4 32  1  0  0  0
  5  6  1  0  0  0
  5 33  1  0  0  0
  6  8  1  0  0  0
  6 12  2  0  0  0
  7  9  1  0  0  0
  7 14  2  0  0  0
  7 15  1  0  0  0
  8  9  1  0  0  0
  8 13  1  0  0  0
  8 34  1  0  0  0
  9 35  1  0  0  0
 10 17  1  0  0  0
 13 19  1  0  0  0
 13 36  1  0  0  0
 13 37  1  0  0  0
 15 18  1  0  0  0
 16 17  1  0  0  0
 16 38  1  0  0  0
 16 39  1  0  0  0
 17 40  1  0  0  0
 17 41  1  0  0  0
 18 20  1  0  0  0
 18 42  1  0  0  0
 18 43  1  0  0  0
 19 21  2  0  0  0
 19 22  1  0  0  0
 20 23  2  0  0  0
 20 24  1  0  0  0
 21 26  1  0  0  0
 21 44  1  0  0  0
 22 27  2  0  0  0
 22 45  1  0  0  0
 23 28  1  0  0  0
 23 46  1  0  0  0
 24 25  2  0  0  0
 24 47  1  0  0  0
 25 30  1  0  0  0
 25 48  1  0  0  0
 26 29  2  0  0  0
 26 49  1  0  0  0
 27 29  1  0  0  0
 27 50  1  0  0  0
 28 30  2  0  0  0
 28 51  1  0  0  0
 29 52  1  0  0  0
 30 53  1  0  0  0
M  END
> <chembl_id>
CHEMBL113761

> <chembl_pref_name>
None

> <i_m_ct_stereo_status>
1

> <s_m_source_file>
sdf/inactives_sanitized.sdf

> <i_m_source_file_index>
304

> <i_lp_mmshare_version>
49012

> <i_f3d_flags>
0

> <s_epik_input>
W0NIMl0xW0NIMl1PW0NAQEhdKE4xMilbQ0BASF0oQzI9TylbTkhdQyg9TylbQ0BIXShbQ0gyXWMzW2NIXVtjSF1bY0hdW2NIXVtjSF0zKVtOSF1DKD1PKU9bQ0gyXWM0W2NIXVtjSF1bY0hdW2NIXVtjSF00

> <s_epik_cmdline>
J2VwaWtfcHl0aG9uJywgJy1waHQnLCAnMC41JywgJy1waCcsICc3LjUnLCAnLW50JywgJy1tYScsICcyMDAnLCAnLWltYWUnLCAnPGluZmlsZS5tYWU+JywgJy1vbWFlJywgJzxvdXRmaWxlLm1hZT4n

> <r_lp_tautomer_probability>
1

> <r_epik_Ionization_Penalty>
  0.0000

> <r_epik_Ionization_Penalty_Charging>
  0.0000

> <r_epik_Ionization_Penalty_Neutral>
  0.0000

> <r_epik_State_Penalty>
 -0.0000

> <r_epik_Charging_Adjusted_Penalty>
0

> <i_epik_Tot_Q>
0

> <i_epik_Tot_abs_Q>
0

> <s_epik_Chemistry_Notes>
This compound has an ester and may undergo hydrolysis at high or low pH. This compound contains an acetal/aminal-like group ( X-CH(R)-Y where X, Y are N, S, or O) that may be acid/base labile, releasing an aldehyde.

> <s_lp_Force_Field>
OPLS3e

> <r_lp_Energy>
38.122015

> <b_lp_Chiralities_Consistent>
1

> <s_lp_Variant>
sdf/inactives_sanitized.sdf:304-1

$$$$
sdf/inactives_sanitized.sdf:305
                    3D
 Schrodinger Suite 2020-1.
 33 34  0  0  1  0            999 V2000
   -0.3440    1.9544   -0.1902 S   0  0  0  0  0  0
    3.9836   -1.6589   -1.3411 C   0  0  0  0  0  0
    3.3129   -1.8527   -0.1896 N   0  0  1  0  0  0
    0.1748    0.2823   -0.3605 N   0  0  1  0  0  0
    4.5638   -1.4397   -2.3181 N   0  0  0  0  0  0
    0.3851    2.7586   -1.1780 O   0  0  0  0  0  0
   -1.8101    1.9583   -0.1466 O   0  0  0  0  0  0
    1.6147   -0.0230   -0.4401 C   0  0  0  0  0  0
    0.2136    2.4446    1.4386 C   0  0  0  0  0  0
    1.8952   -1.5032   -0.1156 C   0  0  2  0  0  0
    3.4192   -3.1556    0.4497 C   0  0  0  0  0  0
    2.6379   -2.8956    1.7352 C   0  0  0  0  0  0
    1.5314   -1.9307    1.3189 C   0  0  0  0  0  0
   -0.1390    1.6634    2.5413 C   0  0  0  0  0  0
    0.9911    3.5935    1.6047 C   0  0  0  0  0  0
    1.4188    3.9584    2.8786 C   0  0  0  0  0  0
    0.2911    2.0296    3.8138 C   0  0  0  0  0  0
    1.0677    3.1751    3.9766 C   0  0  0  0  0  0
   -0.4247   -0.4349    0.0564 H   0  0  0  0  0  0
    1.9519    0.2256   -1.4471 H   0  0  0  0  0  0
    2.1539    0.6393    0.2386 H   0  0  0  0  0  0
    1.3541   -2.1273   -0.8307 H   0  0  0  0  0  0
    2.9464   -3.9097   -0.1829 H   0  0  0  0  0  0
    4.4617   -3.4134    0.6409 H   0  0  0  0  0  0
    3.2874   -2.4208    2.4734 H   0  0  0  0  0  0
    2.2717   -3.8177    2.1880 H   0  0  0  0  0  0
    0.5494   -2.4050    1.3439 H   0  0  0  0  0  0
    1.4989   -1.0800    2.0024 H   0  0  0  0  0  0
   -0.7416    0.7759    2.4132 H   0  0  0  0  0  0
    1.2641    4.2046    0.7569 H   0  0  0  0  0  0
    2.0196    4.8455    3.0148 H   0  0  0  0  0  0
    0.0231    1.4293    4.6707 H   0  0  0  0  0  0
    1.3994    3.4599    4.9643 H   0  0  0  0  0  0
  1  4  1  0  0  0
  1  6  2  0  0  0
  1  7  2  0  0  0
  1  9  1  0  0  0
  2  3  1  0  0  0
  2  5  3  0  0  0
  3 10  1  0  0  0
  3 11  1  0  0  0
  4  8  1  0  0  0
  4 19  1  0  0  0
  8 10  1  0  0  0
  8 20  1  0  0  0
  8 21  1  0  0  0
  9 14  2  0  0  0
  9 15  1  0  0  0
 10 13  1  0  0  0
 10 22  1  0  0  0
 11 12  1  0  0  0
 11 23  1  0  0  0
 11 24  1  0  0  0
 12 13  1  0  0  0
 12 25  1  0  0  0
 12 26  1  0  0  0
 13 27  1  0  0  0
 13 28  1  0  0  0
 14 17  1  0  0  0
 14 29  1  0  0  0
 15 16  2  0  0  0
 15 30  1  0  0  0
 16 18  1  0  0  0
 16 31  1  0  0  0
 17 18  2  0  0  0
 17 32  1  0  0  0
 18 33  1  0  0  0
M  END
> <chembl_id>
CHEMBL8591

> <chembl_pref_name>
None

> <s_m_source_file>
sdf/inactives_sanitized.sdf

> <i_m_source_file_index>
305

> <i_lp_mmshare_version>
49012

> <i_m_ct_stereo_status>
1

> <i_f3d_flags>
0

> <s_epik_input>
W2NIXTFbY0hdW2NIXVtjSF1bY0hdYzFTKD1PKSg9TylbTkhdW0NIMl1bQ0BASF0oTjJDI04pW0NIMl1bQ0gyXVtDSDJdMg==

> <s_epik_cmdline>
J2VwaWtfcHl0aG9uJywgJy1waHQnLCAnMC41JywgJy1waCcsICc3LjUnLCAnLW50JywgJy1tYScsICcyMDAnLCAnLWltYWUnLCAnPGluZmlsZS5tYWU+JywgJy1vbWFlJywgJzxvdXRmaWxlLm1hZT4n

> <r_lp_tautomer_probability>
1

> <r_epik_Ionization_Penalty>
  0.0001

> <r_epik_Ionization_Penalty_Charging>
  0.0000

> <r_epik_Ionization_Penalty_Neutral>
  0.0001

> <r_epik_State_Penalty>
 -0.0000

> <r_epik_Charging_Adjusted_Penalty>
0

> <i_epik_Tot_Q>
0

> <i_epik_Tot_abs_Q>
0

> <s_lp_Force_Field>
OPLS3e

> <r_lp_Energy>
17.324018

> <b_lp_Chiralities_Consistent>
1

> <s_lp_Variant>
sdf/inactives_sanitized.sdf:305-1

$$$$
sdf/inactives_sanitized.sdf:306
                    3D
 Schrodinger Suite 2020-1.
 53 55  0  0  1  0            999 V2000
    2.9142    3.8254    2.7338 N   0  0  1  0  0  0
    1.4654    3.5981    2.6316 C   0  0  1  0  0  0
    0.6567    4.9201    2.7277 C   0  0  0  0  0  0
    1.0333    5.7263    3.9810 C   0  0  0  0  0  0
    2.5578    5.8950    4.0707 C   0  0  0  0  0  0
    3.2989    4.5475    3.9469 C   0  0  0  0  0  0
    1.1598    2.9049    1.2815 C   0  0  0  0  0  0
    1.8523    3.1043    0.2796 O   0  0  0  0  0  0
    0.0838    2.0965    1.2674 N   0  0  0  0  0  0
   -0.3809    1.3149    0.1180 C   0  0  1  0  0  0
    0.0756   -0.1601    0.1682 C   0  0  0  0  0  0
    4.3735   -0.6367    0.0419 C   0  0  0  0  0  0
    3.6759   -0.8002    1.2453 C   0  0  0  0  0  0
    2.2923   -0.6520    1.2897 C   0  0  0  0  0  0
    1.5881   -0.3386    0.1263 C   0  0  0  0  0  0
    2.2718   -0.1730   -1.0782 C   0  0  0  0  0  0
    3.6551   -0.3203   -1.1178 C   0  0  0  0  0  0
    5.8540   -0.7994   -0.0069 C   0  0  0  0  0  0
    6.6502    0.0889   -0.7407 C   0  0  0  0  0  0
    8.0415   -0.0556   -0.8084 C   0  0  0  0  0  0
    8.6563   -1.1173   -0.1139 C   0  0  0  0  0  0
    7.8662   -2.0042    0.6230 C   0  0  0  0  0  0
    6.4834   -1.8461    0.6749 C   0  0  0  0  0  0
    8.9960    1.1155   -1.7619 S   0  0  0  0  0  0
    7.8892    1.9761   -2.9146 C   0  0  0  0  0  0
   10.0998   -1.3427   -0.1286 C   0  0  0  0  0  0
   11.2430   -1.5221   -0.1397 N   0  0  0  0  0  0
   -1.8435    1.4323    0.0015 C   0  0  0  0  0  0
   -2.9935    1.5245   -0.0898 N   0  0  0  0  0  0
    3.4017    2.9412    2.6989 H   0  0  0  0  0  0
    1.1609    2.8922    3.4081 H   0  0  0  0  0  0
    0.8343    5.5375    1.8440 H   0  0  0  0  0  0
   -0.4150    4.7136    2.7350 H   0  0  0  0  0  0
    0.5434    6.7006    3.9683 H   0  0  0  0  0  0
    0.6702    5.2082    4.8699 H   0  0  0  0  0  0
    2.9221    6.5877    3.3106 H   0  0  0  0  0  0
    2.8140    6.3581    5.0240 H   0  0  0  0  0  0
    4.3763    4.7131    3.9218 H   0  0  0  0  0  0
    3.0885    3.9174    4.8123 H   0  0  0  0  0  0
   -0.3833    1.9132    2.1432 H   0  0  0  0  0  0
   -0.0145    1.7596   -0.8099 H   0  0  0  0  0  0
   -0.3281   -0.6460    1.0586 H   0  0  0  0  0  0
   -0.3555   -0.7080   -0.6714 H   0  0  0  0  0  0
    4.2065   -1.0371    2.1561 H   0  0  0  0  0  0
    1.7725   -0.7752    2.2286 H   0  0  0  0  0  0
    1.7347    0.0737   -1.9826 H   0  0  0  0  0  0
    4.1673   -0.1925   -2.0604 H   0  0  0  0  0  0
    6.1692    0.9063   -1.2550 H   0  0  0  0  0  0
    8.3137   -2.8282    1.1619 H   0  0  0  0  0  0
    5.8993   -2.5530    1.2464 H   0  0  0  0  0  0
    8.4732    2.5738   -3.6143 H   0  0  0  0  0  0
    7.2188    2.6460   -2.3760 H   0  0  0  0  0  0
    7.2966    1.2606   -3.4849 H   0  0  0  0  0  0
  1  2  1  0  0  0
  1  6  1  0  0  0
  1 30  1  0  0  0
  2  3  1  0  0  0
  2  7  1  0  0  0
  2 31  1  0  0  0
  3  4  1  0  0  0
  3 32  1  0  0  0
  3 33  1  0  0  0
  4  5  1  0  0  0
  4 34  1  0  0  0
  4 35  1  0  0  0
  5  6  1  0  0  0
  5 36  1  0  0  0
  5 37  1  0  0  0
  6 38  1  0  0  0
  6 39  1  0  0  0
  7  8  2  0  0  0
  7  9  1  0  0  0
  9 10  1  0  0  0
  9 40  1  0  0  0
 10 11  1  0  0  0
 10 28  1  0  0  0
 10 41  1  0  0  0
 11 15  1  0  0  0
 11 42  1  0  0  0
 11 43  1  0  0  0
 12 13  2  0  0  0
 12 17  1  0  0  0
 12 18  1  0  0  0
 13 14  1  0  0  0
 13 44  1  0  0  0
 14 15  2  0  0  0
 14 45  1  0  0  0
 15 16  1  0  0  0
 16 17  2  0  0  0
 16 46  1  0  0  0
 17 47  1  0  0  0
 18 19  2  0  0  0
 18 23  1  0  0  0
 19 20  1  0  0  0
 19 48  1  0  0  0
 20 21  2  0  0  0
 20 24  1  0  0  0
 21 22  1  0  0  0
 21 26  1  0  0  0
 22 23  2  0  0  0
 22 49  1  0  0  0
 23 50  1  0  0  0
 24 25  1  0  0  0
 25 51  1  0  0  0
 25 52  1  0  0  0
 25 53  1  0  0  0
 26 27  3  0  0  0
 28 29  3  0  0  0
M  END
> <chembl_id>
CHEMBL3261920

> <chembl_pref_name>
None

> <i_m_ct_stereo_status>
1

> <s_m_source_file>
sdf/inactives_sanitized.sdf

> <i_m_source_file_index>
306

> <i_lp_mmshare_version>
49012

> <i_f3d_flags>
0

> <s_epik_input>
W0NIMl0xW0NIMl1bQ0gyXVtDSDJdW05IXVtDQEBIXTFDKD1PKVtOSF1bQ0BIXShDI04pW0NIMl1jKFtjSF1bY0hdMilbY0hdW2NIXWMyLWMzW2NIXWMoU1tDSDNdKWMoQyNOKVtjSF1bY0hdMw==

> <s_epik_cmdline>
J2VwaWtfcHl0aG9uJywgJy1waHQnLCAnMC41JywgJy1waCcsICc3LjUnLCAnLW50JywgJy1tYScsICcyMDAnLCAnLWltYWUnLCAnPGluZmlsZS5tYWU+JywgJy1vbWFlJywgJzxvdXRmaWxlLm1hZT4n

> <r_epik_Ionization_Penalty>
  0.3136

> <r_epik_Ionization_Penalty_Charging>
  0.0000

> <r_epik_Ionization_Penalty_Neutral>
  0.3136

> <r_epik_State_Penalty>
  0.3078

> <r_epik_Charging_Adjusted_Penalty>
0.307765777714829

> <i_epik_Tot_Q>
0

> <i_epik_Tot_abs_Q>
0

> <s_lp_Force_Field>
OPLS3e

> <r_lp_Energy>
35.585633

> <b_lp_Chiralities_Consistent>
1

> <s_lp_Variant>
sdf/inactives_sanitized.sdf:306-1

$$$$
sdf/inactives_sanitized.sdf:306
                    3D
 Schrodinger Suite 2020-1.
 54 56  0  0  1  0            999 V2000
    3.0744    4.0071    2.4565 N   0  3  0  0  0  0
    1.6203    3.5027    2.6128 C   0  0  1  0  0  0
    0.6981    4.7063    2.9321 C   0  0  0  0  0  0
    1.1776    5.4814    4.1732 C   0  0  0  0  0  0
    2.6449    5.9248    4.0264 C   0  0  0  0  0  0
    3.5834    4.7450    3.7085 C   0  0  0  0  0  0
    1.2477    2.8507    1.2602 C   0  0  0  0  0  0
    1.9134    3.0316    0.2369 O   0  0  0  0  0  0
    0.1477    2.0762    1.2786 N   0  0  0  0  0  0
   -0.3776    1.3177    0.1390 C   0  0  1  0  0  0
    0.0441   -0.1690    0.1544 C   0  0  0  0  0  0
    4.3338   -0.7175    0.0497 C   0  0  0  0  0  0
    3.6191   -0.9292    1.2351 C   0  0  0  0  0  0
    2.2378   -0.7617    1.2708 C   0  0  0  0  0  0
    1.5525   -0.3813    0.1162 C   0  0  0  0  0  0
    2.2525   -0.1724   -1.0722 C   0  0  0  0  0  0
    3.6343   -0.3379   -1.1027 C   0  0  0  0  0  0
    5.8132   -0.8930    0.0155 C   0  0  0  0  0  0
    6.6300    0.0221   -0.6603 C   0  0  0  0  0  0
    8.0216   -0.1291   -0.7056 C   0  0  0  0  0  0
    8.6148   -1.2267   -0.0490 C   0  0  0  0  0  0
    7.8039   -2.1414    0.6284 C   0  0  0  0  0  0
    6.4215   -1.9759    0.6589 C   0  0  0  0  0  0
    9.0052    1.0793   -1.5801 S   0  0  0  0  0  0
    7.9271    2.0354   -2.6836 C   0  0  0  0  0  0
   10.0569   -1.4621   -0.0433 C   0  0  0  0  0  0
   11.1989   -1.6495   -0.0383 N   0  0  0  0  0  0
   -1.8401    1.4716    0.0768 C   0  0  0  0  0  0
   -2.9899    1.5927    0.0287 N   0  0  0  0  0  0
    3.6792    3.2219    2.2602 H   0  0  0  0  0  0
    1.6387    2.7335    3.3874 H   0  0  0  0  0  0
    0.6721    5.3975    2.0864 H   0  0  0  0  0  0
   -0.3292    4.3704    3.0837 H   0  0  0  0  0  0
    0.5408    6.3517    4.3382 H   0  0  0  0  0  0
    1.0712    4.8545    5.0601 H   0  0  0  0  0  0
    2.7250    6.6748    3.2380 H   0  0  0  0  0  0
    2.9734    6.4154    4.9434 H   0  0  0  0  0  0
    4.5998    5.0661    3.4784 H   0  0  0  0  0  0
    3.6119    4.0021    4.5071 H   0  0  0  0  0  0
   -0.2978    1.8992    2.1673 H   0  0  0  0  0  0
   -0.0348    1.7642   -0.7971 H   0  0  0  0  0  0
   -0.3741   -0.6655    1.0320 H   0  0  0  0  0  0
   -0.3977   -0.6866   -0.6988 H   0  0  0  0  0  0
    4.1344   -1.2180    2.1397 H   0  0  0  0  0  0
    1.7054   -0.9212    2.1972 H   0  0  0  0  0  0
    1.7298    0.1253   -1.9696 H   0  0  0  0  0  0
    4.1598   -0.1736   -2.0323 H   0  0  0  0  0  0
    6.1648    0.8662   -1.1452 H   0  0  0  0  0  0
    8.2350   -2.9927    1.1376 H   0  0  0  0  0  0
    5.8213   -2.7044    1.1849 H   0  0  0  0  0  0
    8.5307    2.6684   -3.3339 H   0  0  0  0  0  0
    7.2619    2.6793   -2.1085 H   0  0  0  0  0  0
    7.3292    1.3724   -3.3091 H   0  0  0  0  0  0
    3.1253    4.6236    1.6574 H   0  0  0  0  0  0
  1  2  1  0  0  0
  1  6  1  0  0  0
  1 30  1  0  0  0
  1 54  1  0  0  0
  2  3  1  0  0  0
  2  7  1  0  0  0
  2 31  1  0  0  0
  3  4  1  0  0  0
  3 32  1  0  0  0
  3 33  1  0  0  0
  4  5  1  0  0  0
  4 34  1  0  0  0
  4 35  1  0  0  0
  5  6  1  0  0  0
  5 36  1  0  0  0
  5 37  1  0  0  0
  6 38  1  0  0  0
  6 39  1  0  0  0
  7  8  2  0  0  0
  7  9  1  0  0  0
  9 10  1  0  0  0
  9 40  1  0  0  0
 10 11  1  0  0  0
 10 28  1  0  0  0
 10 41  1  0  0  0
 11 15  1  0  0  0
 11 42  1  0  0  0
 11 43  1  0  0  0
 12 13  2  0  0  0
 12 17  1  0  0  0
 12 18  1  0  0  0
 13 14  1  0  0  0
 13 44  1  0  0  0
 14 15  2  0  0  0
 14 45  1  0  0  0
 15 16  1  0  0  0
 16 17  2  0  0  0
 16 46  1  0  0  0
 17 47  1  0  0  0
 18 19  2  0  0  0
 18 23  1  0  0  0
 19 20  1  0  0  0
 19 48  1  0  0  0
 20 21  2  0  0  0
 20 24  1  0  0  0
 21 22  1  0  0  0
 21 26  1  0  0  0
 22 23  2  0  0  0
 22 49  1  0  0  0
 23 50  1  0  0  0
 24 25  1  0  0  0
 25 51  1  0  0  0
 25 52  1  0  0  0
 25 53  1  0  0  0
 26 27  3  0  0  0
 28 29  3  0  0  0
M  CHG  1   1   1
M  END
> <chembl_id>
CHEMBL3261920

> <chembl_pref_name>
None

> <i_m_ct_stereo_status>
1

> <s_m_source_file>
sdf/inactives_sanitized.sdf

> <i_m_source_file_index>
306

> <i_lp_mmshare_version>
49012

> <i_f3d_flags>
0

> <s_epik_input>
W0NIMl0xW0NIMl1bQ0gyXVtDSDJdW05IXVtDQEBIXTFDKD1PKVtOSF1bQ0BIXShDI04pW0NIMl1jKFtjSF1bY0hdMilbY0hdW2NIXWMyLWMzW2NIXWMoU1tDSDNdKWMoQyNOKVtjSF1bY0hdMw==

> <s_epik_cmdline>
J2VwaWtfcHl0aG9uJywgJy1waHQnLCAnMC41JywgJy1waCcsICc3LjUnLCAnLW50JywgJy1tYScsICcyMDAnLCAnLWltYWUnLCAnPGluZmlsZS5tYWU+JywgJy1vbWFlJywgJzxvdXRmaWxlLm1hZT4n

> <r_epik_Ionization_Penalty>
  0.5270

> <r_epik_Ionization_Penalty_Charging>
  0.5268

> <r_epik_Ionization_Penalty_Neutral>
  0.0002

> <r_epik_State_Penalty>
  0.5353

> <r_epik_Charging_Adjusted_Penalty>
1.06214808479859

> <i_epik_Tot_Q>
1

> <i_epik_Tot_abs_Q>
1

> <s_lp_Force_Field>
OPLS3e

> <r_lp_Energy>
44.449122

> <b_lp_Chiralities_Consistent>
1

> <s_lp_Variant>
sdf/inactives_sanitized.sdf:306-2

$$$$
sdf/inactives_sanitized.sdf:307
                    3D
 Schrodinger Suite 2020-1.
 50 52  0  0  1  0            999 V2000
    0.7714    7.2077    5.2535 N   0  0  0  0  0  0
    1.6993    6.9186    6.1810 N   0  0  0  0  0  0
    1.7647    8.0340    6.9947 N   0  0  0  0  0  0
    0.8709    9.0024    6.5510 N   0  0  0  0  0  0
    0.2906    8.4744    5.5037 C   0  0  0  0  0  0
    0.0743   -0.0527   -0.0175 C   0  0  1  0  0  0
   -0.5294   -0.9017    1.1234 C   0  0  0  0  0  0
   -0.5047    1.3686    0.0157 C   0  0  0  0  0  0
   -0.5483   -4.5054    2.6960 N   0  0  0  0  0  0
   -0.1588    2.2688    1.0334 C   0  0  0  0  0  0
    0.4175    6.3030    4.2248 C   0  0  0  0  0  0
   -0.6822    3.5703    1.0763 C   0  0  0  0  0  0
   -1.2591   -3.6985    2.2686 C   0  0  0  0  0  0
   -0.3009    4.5191    2.1690 C   0  0  0  0  0  0
    1.6311   -0.0865   -0.0055 C   0  0  0  0  0  0
   -0.1321   -0.7643    2.2819 O   0  0  0  0  0  0
   -0.8535    6.3701    3.6465 C   0  0  0  0  0  0
    1.3292    5.3420    3.7743 C   0  0  0  0  0  0
   -1.2050    5.4863    2.6299 C   0  0  0  0  0  0
    0.9698    4.4619    2.7579 C   0  0  0  0  0  0
   -1.5004   -1.7690    0.7871 N   0  0  0  0  0  0
   -2.1648   -2.6716    1.7237 C   0  0  0  0  0  0
   -1.3977    1.7810   -0.9775 C   0  0  0  0  0  0
   -1.5732    3.9519    0.0619 C   0  0  0  0  0  0
   -1.9283    3.0679   -0.9553 C   0  0  0  0  0  0
    2.3377    0.7330   -1.1172 C   0  0  0  0  0  0
    1.9625    0.2688   -2.5383 C   0  0  0  0  0  0
    3.8651    0.7156   -0.9248 C   0  0  0  0  0  0
   -0.4632    8.9248    4.8753 H   0  0  0  0  0  0
   -0.2383   -0.5153   -0.9557 H   0  0  0  0  0  0
    0.5182    1.9387    1.8075 H   0  0  0  0  0  0
    1.9941    0.2633    0.9629 H   0  0  0  0  0  0
    1.9636   -1.1243   -0.0755 H   0  0  0  0  0  0
   -1.5801    7.0957    3.9819 H   0  0  0  0  0  0
    2.3199    5.2721    4.1999 H   0  0  0  0  0  0
   -2.1985    5.5537    2.2117 H   0  0  0  0  0  0
    1.6995    3.7394    2.4233 H   0  0  0  0  0  0
   -1.7510   -1.8652   -0.1860 H   0  0  0  0  0  0
   -2.9801   -3.1797    1.2089 H   0  0  0  0  0  0
   -2.6059   -2.1149    2.5522 H   0  0  0  0  0  0
   -1.6813    1.1071   -1.7730 H   0  0  0  0  0  0
   -1.9921    4.9471    0.0454 H   0  0  0  0  0  0
   -2.6132    3.3824   -1.7291 H   0  0  0  0  0  0
    2.0242    1.7737   -1.0226 H   0  0  0  0  0  0
    2.2016   -0.7844   -2.6904 H   0  0  0  0  0  0
    2.4992    0.8421   -3.2951 H   0  0  0  0  0  0
    0.8996    0.4023   -2.7388 H   0  0  0  0  0  0
    4.2680   -0.2938   -1.0176 H   0  0  0  0  0  0
    4.1444    1.0946    0.0589 H   0  0  0  0  0  0
    4.3649    1.3408   -1.6655 H   0  0  0  0  0  0
  1  2  1  0  0  0
  1  5  1  0  0  0
  1 11  1  0  0  0
  2  3  2  0  0  0
  3  4  1  0  0  0
  4  5  2  0  0  0
  5 29  1  0  0  0
  6  8  1  0  0  0
  6  7  1  0  0  0
  6 15  1  0  0  0
  6 30  1  0  0  0
  7 16  2  0  0  0
  7 21  1  0  0  0
  8 10  2  0  0  0
  8 23  1  0  0  0
  9 13  3  0  0  0
 10 12  1  0  0  0
 10 31  1  0  0  0
 11 17  2  0  0  0
 11 18  1  0  0  0
 12 14  1  0  0  0
 12 24  2  0  0  0
 13 22  1  0  0  0
 14 20  1  0  0  0
 14 19  2  0  0  0
 15 26  1  0  0  0
 15 32  1  0  0  0
 15 33  1  0  0  0
 17 19  1  0  0  0
 17 34  1  0  0  0
 18 20  2  0  0  0
 18 35  1  0  0  0
 19 36  1  0  0  0
 20 37  1  0  0  0
 21 22  1  0  0  0
 21 38  1  0  0  0
 22 39  1  0  0  0
 22 40  1  0  0  0
 23 25  2  0  0  0
 23 41  1  0  0  0
 24 25  1  0  0  0
 24 42  1  0  0  0
 25 43  1  0  0  0
 26 27  1  0  0  0
 26 28  1  0  0  0
 26 44  1  0  0  0
 27 45  1  0  0  0
 27 46  1  0  0  0
 27 47  1  0  0  0
 28 48  1  0  0  0
 28 49  1  0  0  0
 28 50  1  0  0  0
M  END
> <chembl_id>
CHEMBL123754

> <chembl_pref_name>
None

> <s_m_source_file>
sdf/inactives_sanitized.sdf

> <i_m_source_file_index>
307

> <i_lp_mmshare_version>
49012

> <i_m_ct_stereo_status>
1

> <i_f3d_flags>
0

> <s_epik_input>
W2NIXTFubm5uMS1jMltjSF1bY0hdYyhbY0hdW2NIXTIpLWMoW2NIXVtjSF1bY0hdMylbY0hdYzNbQ0BASF0oW0NIMl1bQ0hdKFtDSDNdKVtDSDNdKUMoPU8pW05IXVtDSDJdQyNO

> <s_epik_cmdline>
J2VwaWtfcHl0aG9uJywgJy1waHQnLCAnMC41JywgJy1waCcsICc3LjUnLCAnLW50JywgJy1tYScsICcyMDAnLCAnLWltYWUnLCAnPGluZmlsZS5tYWU+JywgJy1vbWFlJywgJzxvdXRmaWxlLm1hZT4n

> <r_lp_tautomer_probability>
1

> <r_epik_Ionization_Penalty>
  0.0000

> <r_epik_Ionization_Penalty_Charging>
  0.0000

> <r_epik_Ionization_Penalty_Neutral>
  0.0000

> <r_epik_State_Penalty>
 -0.0000

> <r_epik_Charging_Adjusted_Penalty>
0

> <i_epik_Tot_Q>
0

> <i_epik_Tot_abs_Q>
0

> <s_lp_Force_Field>
OPLS3e

> <r_lp_Energy>
34.077125

> <b_lp_Chiralities_Consistent>
1

> <s_lp_Variant>
sdf/inactives_sanitized.sdf:307-1

$$$$
sdf/inactives_sanitized.sdf:308
                    3D
 Schrodinger Suite 2020-1.
 58 60  0  0  1  0            999 V2000
   -2.3735   -5.9668   -0.5226 C   0  0  0  0  0  0
   -2.3980   -4.9581    0.4816 O   0  0  0  0  0  0
   -1.7824   -3.7461    0.2348 C   0  0  0  0  0  0
   -1.1243   -3.4218   -0.9609 C   0  0  0  0  0  0
   -0.5238   -2.1755   -1.1154 C   0  0  0  0  0  0
   -0.5615   -1.2327   -0.0809 C   0  0  0  0  0  0
   -1.2306   -1.5567    1.1064 C   0  0  0  0  0  0
   -1.8324   -2.8022    1.2599 C   0  0  0  0  0  0
    0.1036    0.0741   -0.2441 C   0  0  0  0  0  0
   -0.7194    1.0618   -0.1890 N   0  0  0  0  0  0
   -0.2466    2.3221   -0.1095 N   0  0  0  0  0  0
   -1.0308    3.4352   -0.0492 C   0  0  0  0  0  0
   -0.3455    4.9387    0.0472 S   0  0  0  0  0  0
   -2.3794    3.2950   -0.0691 N   0  0  0  0  0  0
    1.6067    0.0916   -0.4119 C   0  0  0  0  0  0
    2.3394    1.1996   -0.8769 C   0  0  0  0  0  0
    3.7222    1.1551   -1.0174 C   0  0  0  0  0  0
    4.4201   -0.0051   -0.7069 C   0  0  0  0  0  0
    3.7545   -1.1550   -0.2574 C   0  0  0  0  0  0
    2.3540   -1.0703   -0.1273 C   0  0  0  0  0  0
    4.4965   -2.4116    0.0646 C   0  0  0  0  0  0
    3.8193   -3.4542    0.4013 N   0  0  0  0  0  0
    4.4949   -4.5923    0.7042 N   0  0  0  0  0  0
    3.8969   -5.7682    1.0463 C   0  0  0  0  0  0
    4.8103   -7.1056    1.3873 S   0  0  0  0  0  0
    2.5431   -5.8282    1.1024 N   0  0  0  0  0  0
    5.9768   -2.4064   -0.0379 C   0  0  0  0  0  0
    6.6180   -3.0490   -1.1019 C   0  0  0  0  0  0
    8.0071   -3.0504   -1.1870 C   0  0  0  0  0  0
    8.7786   -2.4137   -0.2149 C   0  0  0  0  0  0
   10.1492   -2.4703   -0.3806 O   0  0  0  0  0  0
   10.9916   -1.8507    0.5853 C   0  0  0  0  0  0
    8.1365   -1.7677    0.8527 C   0  0  0  0  0  0
    6.7470   -1.7667    0.9385 C   0  0  0  0  0  0
   -2.8981   -6.8499   -0.1585 H   0  0  0  0  0  0
   -1.3526   -6.2662   -0.7648 H   0  0  0  0  0  0
   -2.8758   -5.6371   -1.4333 H   0  0  0  0  0  0
   -1.0653   -4.1235   -1.7789 H   0  0  0  0  0  0
   -0.0181   -1.9504   -2.0440 H   0  0  0  0  0  0
   -1.2788   -0.8476    1.9211 H   0  0  0  0  0  0
   -2.3381   -3.0375    2.1851 H   0  0  0  0  0  0
    0.7593    2.4104   -0.0931 H   0  0  0  0  0  0
   -2.7859    2.3729   -0.1356 H   0  0  0  0  0  0
   -2.9693    4.1131   -0.0172 H   0  0  0  0  0  0
    1.8703    2.1188   -1.1843 H   0  0  0  0  0  0
    4.2544    2.0214   -1.3823 H   0  0  0  0  0  0
    5.4917    0.0083   -0.8416 H   0  0  0  0  0  0
    1.8325   -1.9426    0.2375 H   0  0  0  0  0  0
    5.5017   -4.5314    0.6506 H   0  0  0  0  0  0
    1.9965   -5.0031    0.9021 H   0  0  0  0  0  0
    2.0904   -6.6952    1.3532 H   0  0  0  0  0  0
    6.0429   -3.5520   -1.8665 H   0  0  0  0  0  0
    8.4887   -3.5519   -2.0139 H   0  0  0  0  0  0
   12.0335   -2.0001    0.3028 H   0  0  0  0  0  0
   10.8531   -2.2862    1.5761 H   0  0  0  0  0  0
   10.8154   -0.7753    0.6387 H   0  0  0  0  0  0
    8.6976   -1.2634    1.6246 H   0  0  0  0  0  0
    6.2726   -1.2656    1.7707 H   0  0  0  0  0  0
  1  2  1  0  0  0
  1 35  1  0  0  0
  1 36  1  0  0  0
  1 37  1  0  0  0
  2  3  1  0  0  0
  3  4  2  0  0  0
  3  8  1  0  0  0
  4  5  1  0  0  0
  4 38  1  0  0  0
  5  6  2  0  0  0
  5 39  1  0  0  0
  6  7  1  0  0  0
  6  9  1  0  0  0
  7  8  2  0  0  0
  7 40  1  0  0  0
  8 41  1  0  0  0
  9 10  2  0  0  0
  9 15  1  0  0  0
 10 11  1  0  0  0
 11 12  1  0  0  0
 11 42  1  0  0  0
 12 13  2  0  0  0
 12 14  1  0  0  0
 14 43  1  0  0  0
 14 44  1  0  0  0
 15 16  2  0  0  0
 15 20  1  0  0  0
 16 17  1  0  0  0
 16 45  1  0  0  0
 17 18  2  0  0  0
 17 46  1  0  0  0
 18 19  1  0  0  0
 18 47  1  0  0  0
 19 20  2  0  0  0
 19 21  1  0  0  0
 20 48  1  0  0  0
 21 22  2  0  0  0
 21 27  1  0  0  0
 22 23  1  0  0  0
 23 24  1  0  0  0
 23 49  1  0  0  0
 24 25  2  0  0  0
 24 26  1  0  0  0
 26 50  1  0  0  0
 26 51  1  0  0  0
 27 28  2  0  0  0
 27 34  1  0  0  0
 28 29  1  0  0  0
 28 52  1  0  0  0
 29 30  2  0  0  0
 29 53  1  0  0  0
 30 31  1  0  0  0
 30 33  1  0  0  0
 31 32  1  0  0  0
 32 54  1  0  0  0
 32 55  1  0  0  0
 32 56  1  0  0  0
 33 34  2  0  0  0
 33 57  1  0  0  0
 34 58  1  0  0  0
M  END
> <chembl_id>
CHEMBL3699012

> <chembl_pref_name>
None

> <s_m_source_file>
sdf/inactives_sanitized.sdf

> <i_m_source_file_index>
308

> <i_lp_mmshare_version>
49012

> <i_m_ct_stereo_status>
1

> <i_f3d_flags>
0

> <s_epik_input>
W0NIM11PYzFbY0hdW2NIXWMoW2NIXVtjSF0xKS9DKD1OL1tOSF1DKD1TKVtOSDJdKWMyW2NIXVtjSF1bY0hdYyhbY0hdMikvQyg9Ti9bTkhdQyg9UylbTkgyXSljM1tjSF1bY0hdYyhPW0NIM10pW2NIXVtjSF0z

> <s_epik_cmdline>
J2VwaWtfcHl0aG9uJywgJy1waHQnLCAnMC41JywgJy1waCcsICc3LjUnLCAnLW50JywgJy1tYScsICcyMDAnLCAnLWltYWUnLCAnPGluZmlsZS5tYWU+JywgJy1vbWFlJywgJzxvdXRmaWxlLm1hZT4n

> <r_lp_tautomer_probability>
1

> <r_epik_Ionization_Penalty>
  0.0001

> <r_epik_Ionization_Penalty_Charging>
  0.0000

> <r_epik_Ionization_Penalty_Neutral>
  0.0001

> <r_epik_State_Penalty>
 -0.0000

> <r_epik_Charging_Adjusted_Penalty>
0

> <i_epik_Tot_Q>
0

> <i_epik_Tot_abs_Q>
0

> <s_epik_Chemistry_Notes>
This compound has an imine and may undergo hydrolysis.

> <s_lp_Force_Field>
OPLS3e

> <r_lp_Energy>
95.149554

> <b_lp_Chiralities_Consistent>
1

> <s_lp_Variant>
sdf/inactives_sanitized.sdf:308-1

$$$$
sdf/inactives_sanitized.sdf:309
                    3D
 Schrodinger Suite 2020-1.
 33 34  0  0  1  0            999 V2000
   -0.3407    1.8127   -0.0123 S   0  0  0  0  0  0
    2.4249   -3.7925   -2.9482 C   0  0  0  0  0  0
    2.5262   -3.1238   -1.7854 N   0  0  2  0  0  0
    0.2020    0.1410    0.0802 N   0  0  1  0  0  0
    2.3140   -4.4068   -3.9229 N   0  0  0  0  0  0
    0.3998    2.4726   -1.0942 O   0  0  0  0  0  0
   -1.8074    1.7983   -0.0031 O   0  0  0  0  0  0
    0.1711    2.5503    1.5368 C   0  0  0  0  0  0
    1.4728   -2.1857   -1.4211 C   0  0  0  0  0  0
    1.9664   -1.6189   -0.0766 C   0  0  2  0  0  0
    1.6525   -0.1252    0.1354 C   0  0  0  0  0  0
    3.7716   -2.4444   -1.4677 C   0  0  0  0  0  0
    3.4641   -1.9421   -0.0589 C   0  0  0  0  0  0
   -0.2836    1.9961    2.7353 C   0  0  0  0  0  0
    1.0136    3.6650    1.5477 C   0  0  0  0  0  0
    1.4031    4.2237    2.7622 C   0  0  0  0  0  0
    0.1073    2.5564    3.9486 C   0  0  0  0  0  0
    0.9488    3.6671    3.9564 C   0  0  0  0  0  0
   -0.3767   -0.4713    0.6615 H   0  0  0  0  0  0
    1.3841   -1.4085   -2.1829 H   0  0  0  0  0  0
    0.5048   -2.6788   -1.3238 H   0  0  0  0  0  0
    1.4954   -2.1821    0.7318 H   0  0  0  0  0  0
    2.0192    0.1979    1.1104 H   0  0  0  0  0  0
    2.1519    0.4805   -0.6220 H   0  0  0  0  0  0
    3.9299   -1.6291   -2.1766 H   0  0  0  0  0  0
    4.6106   -3.1411   -1.4888 H   0  0  0  0  0  0
    3.6684   -2.7283    0.6708 H   0  0  0  0  0  0
    4.1048   -1.1013    0.2111 H   0  0  0  0  0  0
   -0.9366    1.1354    2.7274 H   0  0  0  0  0  0
    1.3679    4.1013    0.6253 H   0  0  0  0  0  0
    2.0540    5.0855    2.7782 H   0  0  0  0  0  0
   -0.2407    2.1326    4.8791 H   0  0  0  0  0  0
    1.2512    4.1018    4.8978 H   0  0  0  0  0  0
  1  4  1  0  0  0
  1  6  2  0  0  0
  1  7  2  0  0  0
  1  8  1  0  0  0
  2  3  1  0  0  0
  2  5  3  0  0  0
  3  9  1  0  0  0
  3 12  1  0  0  0
  4 11  1  0  0  0
  4 19  1  0  0  0
  8 14  2  0  0  0
  8 15  1  0  0  0
  9 10  1  0  0  0
  9 20  1  0  0  0
  9 21  1  0  0  0
 10 11  1  0  0  0
 10 13  1  0  0  0
 10 22  1  0  0  0
 11 23  1  0  0  0
 11 24  1  0  0  0
 12 13  1  0  0  0
 12 25  1  0  0  0
 12 26  1  0  0  0
 13 27  1  0  0  0
 13 28  1  0  0  0
 14 17  1  0  0  0
 14 29  1  0  0  0
 15 16  2  0  0  0
 15 30  1  0  0  0
 16 18  1  0  0  0
 16 31  1  0  0  0
 17 18  2  0  0  0
 17 32  1  0  0  0
 18 33  1  0  0  0
M  END
> <chembl_id>
CHEMBL8563

> <chembl_pref_name>
None

> <s_m_source_file>
sdf/inactives_sanitized.sdf

> <i_m_source_file_index>
309

> <i_lp_mmshare_version>
49012

> <i_m_ct_stereo_status>
1

> <i_f3d_flags>
0

> <s_epik_input>
W2NIXTFbY0hdW2NIXVtjSF1bY0hdYzFTKD1PKSg9TylbTkhdW0NIMl1bQ0BIXShbQ0gyXVtDSDJdMilbQ0gyXU4yQyNO

> <s_epik_cmdline>
J2VwaWtfcHl0aG9uJywgJy1waHQnLCAnMC41JywgJy1waCcsICc3LjUnLCAnLW50JywgJy1tYScsICcyMDAnLCAnLWltYWUnLCAnPGluZmlsZS5tYWU+JywgJy1vbWFlJywgJzxvdXRmaWxlLm1hZT4n

> <r_lp_tautomer_probability>
1

> <r_epik_Ionization_Penalty>
  0.0001

> <r_epik_Ionization_Penalty_Charging>
  0.0000

> <r_epik_Ionization_Penalty_Neutral>
  0.0001

> <r_epik_State_Penalty>
 -0.0000

> <r_epik_Charging_Adjusted_Penalty>
0

> <i_epik_Tot_Q>
0

> <i_epik_Tot_abs_Q>
0

> <s_lp_Force_Field>
OPLS3e

> <r_lp_Energy>
13.866135

> <b_lp_Chiralities_Consistent>
1

> <s_lp_Variant>
sdf/inactives_sanitized.sdf:309-1

$$$$
sdf/inactives_sanitized.sdf:310
                    3D
 Schrodinger Suite 2020-1.
 34 35  0  0  1  0            999 V2000
   -0.6584    1.2353    0.0979 C   0  0  0  0  0  0
    0.0081    0.0260   -0.0191 N   0  0  0  0  0  0
   -0.5509   -1.2414   -0.1464 C   0  0  0  0  0  0
   -1.9356   -1.2038   -0.0488 N   0  0  0  0  0  0
   -2.7189   -0.0514   -0.0249 N   0  0  0  0  0  0
   -2.1134    1.0732    0.0589 C   0  0  0  0  0  0
    0.0986   -2.2831   -0.2936 O   0  0  0  0  0  0
   -2.9449    2.2571    0.1144 C   0  0  0  0  0  0
   -3.6412    3.1803    0.1705 N   0  0  0  0  0  0
   -0.1154    2.3367    0.2210 O   0  0  0  0  0  0
    1.4897    0.0920   -0.0109 C   0  0  0  0  0  0
    2.1042   -0.0458    1.3966 C   0  0  0  0  0  0
    3.6341    0.0585    1.3792 C   0  0  0  0  0  0
   -2.6821   -2.3991   -0.0267 C   0  0  0  0  0  0
   -2.5673   -3.2786    1.0563 C   0  0  0  0  0  0
   -3.3100   -4.4556    1.0775 C   0  0  0  0  0  0
   -4.1730   -4.7641    0.0196 C   0  0  0  0  0  0
   -4.2897   -3.8790   -1.0576 C   0  0  0  0  0  0
   -3.5489   -2.7007   -1.0831 C   0  0  0  0  0  0
   -5.0015   -6.0488    0.0362 C   0  0  0  0  0  0
   -6.2428   -5.8130   -0.3920 F   0  0  0  0  0  0
   -4.4347   -6.9428   -0.7735 F   0  0  0  0  0  0
   -5.0832   -6.5792    1.2581 F   0  0  0  0  0  0
    1.8398    1.0235   -0.4599 H   0  0  0  0  0  0
    1.9176   -0.6708   -0.6641 H   0  0  0  0  0  0
    1.7060    0.7300    2.0521 H   0  0  0  0  0  0
    1.8204   -1.0051    1.8320 H   0  0  0  0  0  0
    4.0427   -0.0508    2.3841 H   0  0  0  0  0  0
    3.9601    1.0253    0.9937 H   0  0  0  0  0  0
    4.0772   -0.7183    0.7552 H   0  0  0  0  0  0
   -1.9045   -3.0529    1.8796 H   0  0  0  0  0  0
   -3.2067   -5.1246    1.9195 H   0  0  0  0  0  0
   -4.9537   -4.1036   -1.8800 H   0  0  0  0  0  0
   -3.6479   -2.0273   -1.9224 H   0  0  0  0  0  0
  1  6  1  0  0  0
  1  2  1  0  0  0
  1 10  2  0  0  0
  2  3  1  0  0  0
  2 11  1  0  0  0
  3  7  2  0  0  0
  3  4  1  0  0  0
  4 14  1  0  0  0
  4  5  1  0  0  0
  5  6  2  0  0  0
  6  8  1  0  0  0
  8  9  3  0  0  0
 11 12  1  0  0  0
 11 24  1  0  0  0
 11 25  1  0  0  0
 12 13  1  0  0  0
 12 26  1  0  0  0
 12 27  1  0  0  0
 13 28  1  0  0  0
 13 29  1  0  0  0
 13 30  1  0  0  0
 14 15  2  0  0  0
 14 19  1  0  0  0
 15 16  1  0  0  0
 15 31  1  0  0  0
 16 17  2  0  0  0
 16 32  1  0  0  0
 17 18  1  0  0  0
 17 20  1  0  0  0
 18 19  2  0  0  0
 18 33  1  0  0  0
 19 34  1  0  0  0
 20 21  1  0  0  0
 20 22  1  0  0  0
 20 23  1  0  0  0
M  END
> <chembl_id>
CHEMBL1082250

> <chembl_pref_name>
None

> <s_m_source_file>
sdf/inactives_sanitized.sdf

> <i_m_source_file_index>
310

> <i_lp_mmshare_version>
49012

> <i_m_ct_stereo_status>
1

> <i_f3d_flags>
0

> <s_epik_input>
W0NIM11bQ0gyXVtDSDJdbihjMT1PKWMoPU8pbihuYzFDI04pLWMyW2NIXVtjSF1jKEMoRikoRilGKVtjSF1bY0hdMg==

> <s_epik_cmdline>
J2VwaWtfcHl0aG9uJywgJy1waHQnLCAnMC41JywgJy1waCcsICc3LjUnLCAnLW50JywgJy1tYScsICcyMDAnLCAnLWltYWUnLCAnPGluZmlsZS5tYWU+JywgJy1vbWFlJywgJzxvdXRmaWxlLm1hZT4n

> <r_lp_tautomer_probability>
1

> <r_epik_Ionization_Penalty>
  0.0000

> <r_epik_Ionization_Penalty_Charging>
  0.0000

> <r_epik_Ionization_Penalty_Neutral>
  0.0000

> <r_epik_State_Penalty>
 -0.0000

> <r_epik_Charging_Adjusted_Penalty>
2.15847650419318e-12

> <i_epik_Tot_Q>
0

> <i_epik_Tot_abs_Q>
0

> <s_lp_Force_Field>
OPLS3e

> <r_lp_Energy>
50.638748

> <b_lp_Chiralities_Consistent>
1

> <s_lp_Variant>
sdf/inactives_sanitized.sdf:310-1

$$$$
sdf/inactives_sanitized.sdf:311
                    3D
 Schrodinger Suite 2020-1.
 49 50  0  0  1  0            999 V2000
    0.7389   -2.7062    2.4319 C   0  0  0  0  0  0
    1.2263   -4.0129    2.4877 C   0  0  0  0  0  0
    0.9715   -4.8977    1.4393 C   0  0  0  0  0  0
    0.2288   -4.4762    0.3367 C   0  0  0  0  0  0
   -0.2568   -3.1696    0.2805 C   0  0  0  0  0  0
    0.0014   -2.2724    1.3243 C   0  0  0  0  0  0
   -0.5189   -0.8366    1.2659 C   0  0  0  0  0  0
   -0.0646   -0.0586   -0.0006 C   0  0  2  0  0  0
    1.3971    0.0293   -0.0956 N   0  0  0  0  0  0
   -0.6651    1.3612    0.0031 C   0  0  0  0  0  0
   -0.2043    2.2237    0.7536 O   0  0  0  0  0  0
   -1.7161    1.5668   -0.8082 N   0  0  0  0  0  0
   -2.4624    2.8195   -0.8744 C   0  0  0  0  0  0
   -3.1948    3.1162    0.3697 C   0  0  0  0  0  0
   -3.7700    3.3489    1.3465 N   0  0  0  0  0  0
    2.1797   -0.6738   -0.9346 C   0  0  0  0  0  0
    1.7564   -1.4934   -1.7513 O   0  0  0  0  0  0
    3.5897   -0.3896   -0.7919 C   0  0  0  0  0  0
    2.1457   -4.5327    3.8527 Cl  0  0  0  0  0  0
    4.5967   -0.7336   -1.6740 N   0  0  0  0  0  0
    5.8200   -0.4154   -1.2238 N   0  0  0  0  0  0
    5.6441    0.1322   -0.0401 C   0  0  0  0  0  0
    4.2841    0.1473    0.2886 C   0  0  0  0  0  0
    4.4949   -1.3984   -2.9695 C   0  0  0  0  0  0
    6.8227    0.6191    0.7915 C   0  0  0  0  0  0
    7.7392    1.5748    0.0019 C   0  0  0  0  0  0
    7.6150   -0.5615    1.3826 C   0  0  0  0  0  0
    0.9430   -2.0278    3.2477 H   0  0  0  0  0  0
    1.3468   -5.9098    1.4786 H   0  0  0  0  0  0
    0.0295   -5.1615   -0.4739 H   0  0  0  0  0  0
   -0.8313   -2.8584   -0.5797 H   0  0  0  0  0  0
   -1.6081   -0.8779    1.3256 H   0  0  0  0  0  0
   -0.1968   -0.3009    2.1619 H   0  0  0  0  0  0
   -0.4560   -0.5832   -0.8748 H   0  0  0  0  0  0
    1.8294    0.6948    0.5287 H   0  0  0  0  0  0
   -2.0657    0.7992   -1.3634 H   0  0  0  0  0  0
   -3.1887    2.7564   -1.6847 H   0  0  0  0  0  0
   -1.7994    3.6559   -1.1021 H   0  0  0  0  0  0
    3.8597    0.5111    1.2131 H   0  0  0  0  0  0
    3.7267   -0.9094   -3.5694 H   0  0  0  0  0  0
    4.2255   -2.4437   -2.8155 H   0  0  0  0  0  0
    5.4414   -1.3498   -3.5110 H   0  0  0  0  0  0
    6.4316    1.1917    1.6341 H   0  0  0  0  0  0
    7.1855    2.4407   -0.3629 H   0  0  0  0  0  0
    8.1897    1.0817   -0.8604 H   0  0  0  0  0  0
    8.5531    1.9459    0.6257 H   0  0  0  0  0  0
    6.9805   -1.1902    2.0087 H   0  0  0  0  0  0
    8.4420   -0.2124    2.0021 H   0  0  0  0  0  0
    8.0375   -1.1918    0.5991 H   0  0  0  0  0  0
  1  2  2  0  0  0
  1  6  1  0  0  0
  1 28  1  0  0  0
  2 19  1  0  0  0
  2  3  1  0  0  0
  3  4  2  0  0  0
  3 29  1  0  0  0
  4  5  1  0  0  0
  4 30  1  0  0  0
  5  6  2  0  0  0
  5 31  1  0  0  0
  6  7  1  0  0  0
  7  8  1  0  0  0
  7 32  1  0  0  0
  7 33  1  0  0  0
  8  9  1  0  0  0
  8 10  1  0  0  0
  8 34  1  0  0  0
  9 16  1  0  0  0
  9 35  1  0  0  0
 10 11  2  0  0  0
 10 12  1  0  0  0
 12 13  1  0  0  0
 12 36  1  0  0  0
 13 14  1  0  0  0
 13 37  1  0  0  0
 13 38  1  0  0  0
 14 15  3  0  0  0
 16 17  2  0  0  0
 16 18  1  0  0  0
 18 20  1  0  0  0
 18 23  2  0  0  0
 20 21  1  0  0  0
 20 24  1  0  0  0
 21 22  2  0  0  0
 22 23  1  0  0  0
 22 25  1  0  0  0
 23 39  1  0  0  0
 24 40  1  0  0  0
 24 41  1  0  0  0
 24 42  1  0  0  0
 25 26  1  0  0  0
 25 27  1  0  0  0
 25 43  1  0  0  0
 26 44  1  0  0  0
 26 45  1  0  0  0
 26 46  1  0  0  0
 27 47  1  0  0  0
 27 48  1  0  0  0
 27 49  1  0  0  0
M  END
> <chembl_id>
CHEMBL562462

> <chembl_pref_name>
None

> <i_m_ct_stereo_status>
1

> <s_m_source_file>
sdf/inactives_sanitized.sdf

> <i_m_source_file_index>
311

> <i_lp_mmshare_version>
49012

> <i_f3d_flags>
0

> <s_epik_input>
W2NIXTFbY0hdW2NIXWMoW2NIXWMxQ2wpW0NIMl1bQ0BASF0oQyg9TylbTkhdW0NIMl1DI04pW05IXUMoPU8pYzJuKFtDSDNdKW5jKFtjSF0yKVtDSF0oW0NIM10pW0NIM10=

> <s_epik_cmdline>
J2VwaWtfcHl0aG9uJywgJy1waHQnLCAnMC41JywgJy1waCcsICc3LjUnLCAnLW50JywgJy1tYScsICcyMDAnLCAnLWltYWUnLCAnPGluZmlsZS5tYWU+JywgJy1vbWFlJywgJzxvdXRmaWxlLm1hZT4n

> <r_lp_tautomer_probability>
1

> <r_epik_Ionization_Penalty>
  0.0000

> <r_epik_Ionization_Penalty_Charging>
  0.0000

> <r_epik_Ionization_Penalty_Neutral>
  0.0000

> <r_epik_State_Penalty>
 -0.0000

> <r_epik_Charging_Adjusted_Penalty>
0

> <i_epik_Tot_Q>
0

> <i_epik_Tot_abs_Q>
0

> <s_lp_Force_Field>
OPLS3e

> <r_lp_Energy>
17.614857

> <b_lp_Chiralities_Consistent>
1

> <s_lp_Variant>
sdf/inactives_sanitized.sdf:311-1

$$$$
sdf/inactives_sanitized.sdf:312
                    3D
 Schrodinger Suite 2020-1.
 46 47  0  0  1  0            999 V2000
    0.1090   -3.1990    0.2051 C   0  0  0  0  0  0
    0.6546   -4.4614    0.4434 C   0  0  0  0  0  0
    1.0119   -4.8335    1.7392 C   0  0  0  0  0  0
    0.8211   -3.9445    2.7962 C   0  0  0  0  0  0
    0.2778   -2.6819    2.5577 C   0  0  0  0  0  0
   -0.0751   -2.2945    1.2596 C   0  0  0  0  0  0
   -0.6584   -0.8995    1.0160 C   0  0  0  0  0  0
   -0.0434   -0.1563   -0.2032 C   0  0  2  0  0  0
    1.4231   -0.1473   -0.1533 N   0  0  0  0  0  0
   -0.6071    1.2773   -0.3090 C   0  0  0  0  0  0
   -0.2706    2.1297    0.5146 O   0  0  0  0  0  0
   -1.4827    1.5043   -1.3020 N   0  0  0  0  0  0
   -2.1695    2.7755   -1.5080 C   0  0  0  0  0  0
   -3.1051    3.1039   -0.4177 C   0  0  0  0  0  0
   -3.8401    3.3613    0.4381 N   0  0  0  0  0  0
    2.2500    0.1020   -1.1861 C   0  0  0  0  0  0
    1.8529    0.3623   -2.3234 O   0  0  0  0  0  0
    3.7271    0.0283   -0.8640 C   0  0  0  0  0  0
    0.8882   -5.5614   -0.8658 Cl  0  0  0  0  0  0
    4.6650    0.9388   -1.4058 C   0  0  0  0  0  0
    6.0205    0.8066   -1.0834 C   0  0  0  0  0  0
    6.4586   -0.2086   -0.2376 C   0  0  0  0  0  0
    5.5446   -1.1096    0.3046 C   0  0  0  0  0  0
    4.1910   -0.9913   -0.0141 C   0  0  0  0  0  0
    4.2638    2.0997   -2.3125 C   0  0  0  0  0  0
    6.0252   -2.2233    1.2173 C   0  0  0  0  0  0
   -0.1665   -2.9285   -0.8034 H   0  0  0  0  0  0
    1.4339   -5.8099    1.9277 H   0  0  0  0  0  0
    1.0953   -4.2333    3.8000 H   0  0  0  0  0  0
    0.1387   -2.0034    3.3869 H   0  0  0  0  0  0
   -1.7403   -0.9934    0.9072 H   0  0  0  0  0  0
   -0.4945   -0.2981    1.9132 H   0  0  0  0  0  0
   -0.3361   -0.7052   -1.1008 H   0  0  0  0  0  0
    1.8258   -0.3388    0.7522 H   0  0  0  0  0  0
   -1.7375    0.7442   -1.9159 H   0  0  0  0  0  0
   -1.4527    3.5911   -1.6169 H   0  0  0  0  0  0
   -2.7391    2.7240   -2.4357 H   0  0  0  0  0  0
    6.7464    1.4972   -1.4876 H   0  0  0  0  0  0
    7.5102   -0.2909   -0.0036 H   0  0  0  0  0  0
    3.4978   -1.7091    0.4034 H   0  0  0  0  0  0
    5.0672    2.8284   -2.4287 H   0  0  0  0  0  0
    3.4120    2.6363   -1.8933 H   0  0  0  0  0  0
    3.9788    1.7342   -3.2995 H   0  0  0  0  0  0
    5.2966   -3.0322    1.2861 H   0  0  0  0  0  0
    6.2268   -1.8373    2.2169 H   0  0  0  0  0  0
    6.9479   -2.6584    0.8314 H   0  0  0  0  0  0
  1  2  2  0  0  0
  1  6  1  0  0  0
  1 27  1  0  0  0
  2 19  1  0  0  0
  2  3  1  0  0  0
  3  4  2  0  0  0
  3 28  1  0  0  0
  4  5  1  0  0  0
  4 29  1  0  0  0
  5  6  2  0  0  0
  5 30  1  0  0  0
  6  7  1  0  0  0
  7  8  1  0  0  0
  7 31  1  0  0  0
  7 32  1  0  0  0
  8  9  1  0  0  0
  8 10  1  0  0  0
  8 33  1  0  0  0
  9 16  1  0  0  0
  9 34  1  0  0  0
 10 11  2  0  0  0
 10 12  1  0  0  0
 12 13  1  0  0  0
 12 35  1  0  0  0
 13 14  1  0  0  0
 13 36  1  0  0  0
 13 37  1  0  0  0
 14 15  3  0  0  0
 16 17  2  0  0  0
 16 18  1  0  0  0
 18 20  2  0  0  0
 18 24  1  0  0  0
 20 21  1  0  0  0
 20 25  1  0  0  0
 21 22  2  0  0  0
 21 38  1  0  0  0
 22 23  1  0  0  0
 22 39  1  0  0  0
 23 24  2  0  0  0
 23 26  1  0  0  0
 24 40  1  0  0  0
 25 41  1  0  0  0
 25 42  1  0  0  0
 25 43  1  0  0  0
 26 44  1  0  0  0
 26 45  1  0  0  0
 26 46  1  0  0  0
M  END
> <chembl_id>
CHEMBL560786

> <chembl_pref_name>
None

> <i_m_ct_stereo_status>
1

> <s_m_source_file>
sdf/inactives_sanitized.sdf

> <i_m_source_file_index>
312

> <i_lp_mmshare_version>
49012

> <i_f3d_flags>
0

> <s_epik_input>
W2NIXTFbY0hdW2NIXWMoW2NIXWMxQ2wpW0NIMl1bQ0BASF0oQyg9TylbTkhdW0NIMl1DI04pW05IXUMoPU8pYzJjKFtDSDNdKVtjSF1bY0hdYyhbY0hdMilbQ0gzXQ==

> <s_epik_cmdline>
J2VwaWtfcHl0aG9uJywgJy1waHQnLCAnMC41JywgJy1waCcsICc3LjUnLCAnLW50JywgJy1tYScsICcyMDAnLCAnLWltYWUnLCAnPGluZmlsZS5tYWU+JywgJy1vbWFlJywgJzxvdXRmaWxlLm1hZT4n

> <r_lp_tautomer_probability>
1

> <r_epik_Ionization_Penalty>
  0.0000

> <r_epik_Ionization_Penalty_Charging>
  0.0000

> <r_epik_Ionization_Penalty_Neutral>
  0.0000

> <r_epik_State_Penalty>
 -0.0000

> <r_epik_Charging_Adjusted_Penalty>
0

> <i_epik_Tot_Q>
0

> <i_epik_Tot_abs_Q>
0

> <s_lp_Force_Field>
OPLS3e

> <r_lp_Energy>
20.479319

> <b_lp_Chiralities_Consistent>
1

> <s_lp_Variant>
sdf/inactives_sanitized.sdf:312-1

$$$$
sdf/inactives_sanitized.sdf:313
                    3D
 Schrodinger Suite 2020-1.
 46 47  0  0  1  0            999 V2000
    0.5685   -2.8292    2.4956 C   0  0  0  0  0  0
    1.0839   -4.1262    2.5223 C   0  0  0  0  0  0
    0.9794   -4.9414    1.3951 C   0  0  0  0  0  0
    0.3574   -4.4608    0.2436 C   0  0  0  0  0  0
   -0.1576   -3.1647    0.2170 C   0  0  0  0  0  0
   -0.0484   -2.3354    1.3404 C   0  0  0  0  0  0
   -0.6037   -0.9105    1.3210 C   0  0  0  0  0  0
   -0.1084   -0.0587    0.1186 C   0  0  2  0  0  0
    1.3553    0.0367    0.0755 N   0  0  0  0  0  0
   -0.7028    1.3618    0.1802 C   0  0  0  0  0  0
   -0.3370    2.1432    1.0605 O   0  0  0  0  0  0
   -1.6421    1.6579   -0.7334 N   0  0  0  0  0  0
   -2.2885    2.9618   -0.8453 C   0  0  0  0  0  0
   -1.3553    4.0336   -1.2360 C   0  0  0  0  0  0
   -0.6229    4.8752   -1.5430 N   0  0  0  0  0  0
    2.1623   -0.5250   -0.8449 C   0  0  0  0  0  0
    1.7444   -1.2134   -1.7789 O   0  0  0  0  0  0
    3.6457   -0.2994   -0.6557 C   0  0  0  0  0  0
    1.8520   -4.7205    3.9492 Cl  0  0  0  0  0  0
    4.5661   -1.1896   -1.2287 C   0  0  0  0  0  0
    5.9414   -1.0021   -1.0707 C   0  0  0  0  0  0
    6.4098    0.0843   -0.3295 C   0  0  0  0  0  0
    5.5115    0.9861    0.2433 C   0  0  0  0  0  0
    4.1371    0.7934    0.0785 C   0  0  0  0  0  0
    6.9165   -1.9885   -1.6876 C   0  0  0  0  0  0
    6.0337    2.1656    1.0434 C   0  0  0  0  0  0
    0.6565   -2.2053    3.3734 H   0  0  0  0  0  0
    1.3772   -5.9455    1.4111 H   0  0  0  0  0  0
    0.2740   -5.0925   -0.6284 H   0  0  0  0  0  0
   -0.6385   -2.8103   -0.6826 H   0  0  0  0  0  0
   -1.6931   -0.9771    1.3249 H   0  0  0  0  0  0
   -0.3329   -0.4121    2.2546 H   0  0  0  0  0  0
   -0.4713   -0.5318   -0.7961 H   0  0  0  0  0  0
    1.7710    0.5890    0.8112 H   0  0  0  0  0  0
   -1.8758    0.9718   -1.4366 H   0  0  0  0  0  0
   -3.0710    2.9053   -1.6019 H   0  0  0  0  0  0
   -2.7703    3.2377    0.0942 H   0  0  0  0  0  0
    4.2186   -2.0398   -1.7995 H   0  0  0  0  0  0
    7.4728    0.2310   -0.2001 H   0  0  0  0  0  0
    3.4567    1.5056    0.5237 H   0  0  0  0  0  0
    7.9057   -1.9181   -1.2332 H   0  0  0  0  0  0
    7.0027   -1.8197   -2.7613 H   0  0  0  0  0  0
    6.5674   -3.0106   -1.5357 H   0  0  0  0  0  0
    5.2290    2.7477    1.4944 H   0  0  0  0  0  0
    6.6239    2.8231    0.4044 H   0  0  0  0  0  0
    6.6866    1.8156    1.8436 H   0  0  0  0  0  0
  1  2  2  0  0  0
  1  6  1  0  0  0
  1 27  1  0  0  0
  2 19  1  0  0  0
  2  3  1  0  0  0
  3  4  2  0  0  0
  3 28  1  0  0  0
  4  5  1  0  0  0
  4 29  1  0  0  0
  5  6  2  0  0  0
  5 30  1  0  0  0
  6  7  1  0  0  0
  7  8  1  0  0  0
  7 31  1  0  0  0
  7 32  1  0  0  0
  8  9  1  0  0  0
  8 10  1  0  0  0
  8 33  1  0  0  0
  9 16  1  0  0  0
  9 34  1  0  0  0
 10 11  2  0  0  0
 10 12  1  0  0  0
 12 13  1  0  0  0
 12 35  1  0  0  0
 13 14  1  0  0  0
 13 36  1  0  0  0
 13 37  1  0  0  0
 14 15  3  0  0  0
 16 17  2  0  0  0
 16 18  1  0  0  0
 18 20  2  0  0  0
 18 24  1  0  0  0
 20 21  1  0  0  0
 20 38  1  0  0  0
 21 22  2  0  0  0
 21 25  1  0  0  0
 22 23  1  0  0  0
 22 39  1  0  0  0
 23 24  2  0  0  0
 23 26  1  0  0  0
 24 40  1  0  0  0
 25 41  1  0  0  0
 25 42  1  0  0  0
 25 43  1  0  0  0
 26 44  1  0  0  0
 26 45  1  0  0  0
 26 46  1  0  0  0
M  END
> <chembl_id>
CHEMBL559238

> <chembl_pref_name>
None

> <i_m_ct_stereo_status>
1

> <s_m_source_file>
sdf/inactives_sanitized.sdf

> <i_m_source_file_index>
313

> <i_lp_mmshare_version>
49012

> <i_f3d_flags>
0

> <s_epik_input>
W2NIXTFbY0hdW2NIXWMoW2NIXWMxQ2wpW0NIMl1bQ0BASF0oQyg9TylbTkhdW0NIMl1DI04pW05IXUMoPU8pYzJbY0hdYyhbQ0gzXSlbY0hdYyhbY0hdMilbQ0gzXQ==

> <s_epik_cmdline>
J2VwaWtfcHl0aG9uJywgJy1waHQnLCAnMC41JywgJy1waCcsICc3LjUnLCAnLW50JywgJy1tYScsICcyMDAnLCAnLWltYWUnLCAnPGluZmlsZS5tYWU+JywgJy1vbWFlJywgJzxvdXRmaWxlLm1hZT4n

> <r_lp_tautomer_probability>
1

> <r_epik_Ionization_Penalty>
  0.0000

> <r_epik_Ionization_Penalty_Charging>
  0.0000

> <r_epik_Ionization_Penalty_Neutral>
  0.0000

> <r_epik_State_Penalty>
 -0.0000

> <r_epik_Charging_Adjusted_Penalty>
0

> <i_epik_Tot_Q>
0

> <i_epik_Tot_abs_Q>
0

> <s_lp_Force_Field>
OPLS3e

> <r_lp_Energy>
19.331262

> <b_lp_Chiralities_Consistent>
1

> <s_lp_Variant>
sdf/inactives_sanitized.sdf:313-1

$$$$
sdf/inactives_sanitized.sdf:314
                    3D
 Schrodinger Suite 2020-1.
 43 45  0  0  1  0            999 V2000
   -2.6997    0.0258   -0.0371 N   0  0  0  0  0  0
   -2.0806   -1.1911    0.0009 C   0  0  0  0  0  0
   -0.6781   -1.2854    0.0171 C   0  0  0  0  0  0
    0.0546   -0.0918    0.0062 C   0  0  0  0  0  0
   -0.5438    1.1296   -0.0217 N   0  0  0  0  0  0
   -1.8995    1.1216   -0.0421 C   0  0  0  0  0  0
   -2.5613    2.4143   -0.0670 C   0  0  0  0  0  0
   -3.0887    3.4443   -0.0865 N   0  0  0  0  0  0
   -2.9682   -2.3972    0.0067 C   0  0  0  0  0  0
    1.5779   -0.0972    0.0271 C   0  0  0  0  0  0
    2.1911    0.5082    1.3067 C   0  0  0  0  0  0
    1.8453   -0.2672    2.5877 C   0  0  0  0  0  0
   -2.5330   -3.6090    0.5664 C   0  0  0  0  0  0
   -3.3521   -4.7446    0.5863 C   0  0  0  0  0  0
   -4.6313   -4.6726    0.0300 C   0  0  0  0  0  0
   -5.0848   -3.4816   -0.5303 C   0  0  0  0  0  0
   -4.2623   -2.3564   -0.5385 C   0  0  0  0  0  0
   -2.8602   -6.0487    1.2125 C   0  0  0  0  0  0
   -2.4530   -5.9716    2.7040 C   0  0  0  0  0  0
   -1.1206   -6.7321    2.8272 C   0  0  0  0  0  0
   -0.9949   -7.5664    1.5537 C   0  0  0  0  0  0
   -1.6661   -6.6996    0.4925 C   0  0  0  0  0  0
   -0.1720   -2.2394    0.0302 H   0  0  0  0  0  0
    1.9316    0.4572   -0.8438 H   0  0  0  0  0  0
    1.9468   -1.1156   -0.1070 H   0  0  0  0  0  0
    3.2758    0.5377    1.1967 H   0  0  0  0  0  0
    1.8765    1.5473    1.4147 H   0  0  0  0  0  0
    2.3369    0.1756    3.4545 H   0  0  0  0  0  0
    2.1673   -1.3070    2.5195 H   0  0  0  0  0  0
    0.7721   -0.2606    2.7805 H   0  0  0  0  0  0
   -1.5508   -3.6763    1.0104 H   0  0  0  0  0  0
   -5.2795   -5.5368    0.0326 H   0  0  0  0  0  0
   -6.0749   -3.4293   -0.9584 H   0  0  0  0  0  0
   -4.6414   -1.4479   -0.9836 H   0  0  0  0  0  0
   -3.6539   -6.7959    1.1414 H   0  0  0  0  0  0
   -2.2869   -4.9508    3.0515 H   0  0  0  0  0  0
   -3.1869   -6.4770    3.3339 H   0  0  0  0  0  0
   -0.2920   -6.0239    2.8830 H   0  0  0  0  0  0
   -1.0768   -7.3490    3.7258 H   0  0  0  0  0  0
    0.0416   -7.8006    1.3080 H   0  0  0  0  0  0
   -1.5326   -8.5096    1.6644 H   0  0  0  0  0  0
   -0.9572   -5.9341    0.1717 H   0  0  0  0  0  0
   -1.9559   -7.2315   -0.4146 H   0  0  0  0  0  0
  1  6  2  0  0  0
  1  2  1  0  0  0
  2  9  1  0  0  0
  2  3  2  0  0  0
  3  4  1  0  0  0
  3 23  1  0  0  0
  4  5  2  0  0  0
  4 10  1  0  0  0
  5  6  1  0  0  0
  6  7  1  0  0  0
  7  8  3  0  0  0
  9 13  2  0  0  0
  9 17  1  0  0  0
 10 11  1  0  0  0
 10 24  1  0  0  0
 10 25  1  0  0  0
 11 12  1  0  0  0
 11 26  1  0  0  0
 11 27  1  0  0  0
 12 28  1  0  0  0
 12 29  1  0  0  0
 12 30  1  0  0  0
 13 14  1  0  0  0
 13 31  1  0  0  0
 14 15  2  0  0  0
 14 18  1  0  0  0
 15 16  1  0  0  0
 15 32  1  0  0  0
 16 17  2  0  0  0
 16 33  1  0  0  0
 17 34  1  0  0  0
 18 19  1  0  0  0
 18 22  1  0  0  0
 18 35  1  0  0  0
 19 20  1  0  0  0
 19 36  1  0  0  0
 19 37  1  0  0  0
 20 21  1  0  0  0
 20 38  1  0  0  0
 20 39  1  0  0  0
 21 22  1  0  0  0
 21 40  1  0  0  0
 21 41  1  0  0  0
 22 42  1  0  0  0
 22 43  1  0  0  0
M  END
> <chembl_id>
CHEMBL1082857

> <chembl_pref_name>
None

> <s_m_source_file>
sdf/inactives_sanitized.sdf

> <i_m_source_file_index>
314

> <i_lp_mmshare_version>
49012

> <i_m_ct_stereo_status>
1

> <i_f3d_flags>
0

> <s_epik_input>
W0NIM11bQ0gyXVtDSDJdYyhbY0hdMSluYyhDI04pbmMxLWMyW2NIXWMoW2NIXVtjSF1bY0hdMilbQ0hdM1tDSDJdW0NIMl1bQ0gyXVtDSDJdMw==

> <s_epik_cmdline>
J2VwaWtfcHl0aG9uJywgJy1waHQnLCAnMC41JywgJy1waCcsICc3LjUnLCAnLW50JywgJy1tYScsICcyMDAnLCAnLWltYWUnLCAnPGluZmlsZS5tYWU+JywgJy1vbWFlJywgJzxvdXRmaWxlLm1hZT4n

> <r_lp_tautomer_probability>
1

> <r_epik_Ionization_Penalty>
  0.0000

> <r_epik_Ionization_Penalty_Charging>
  0.0000

> <r_epik_Ionization_Penalty_Neutral>
  0.0000

> <r_epik_State_Penalty>
 -0.0000

> <r_epik_Charging_Adjusted_Penalty>
0

> <i_epik_Tot_Q>
0

> <i_epik_Tot_abs_Q>
0

> <s_lp_Force_Field>
OPLS3e

> <r_lp_Energy>
37.845286

> <b_lp_Chiralities_Consistent>
1

> <s_lp_Variant>
sdf/inactives_sanitized.sdf:314-1

$$$$
sdf/inactives_sanitized.sdf:315
                    3D
 Schrodinger Suite 2020-1.
 54 56  0  0  1  0            999 V2000
    0.0766    0.0033   -1.3512 S   0  0  0  0  0  0
   -0.0910    0.2816   -2.7810 O   0  0  0  0  0  0
   -0.5513   -1.1988   -0.7894 O   0  0  0  0  0  0
    1.9397   -0.0546   -0.9553 C   0  0  2  0  0  0
    2.6324   -1.1757   -1.7574 C   0  0  0  0  0  0
    3.5653   -1.9146   -0.7716 C   0  0  2  0  0  0
    2.8796   -1.7337    0.6194 C   0  0  1  0  0  0
    2.2207   -0.3352    0.5363 C   0  0  0  0  0  0
    4.9825   -1.2844   -0.8160 C   0  0  0  0  0  0
    1.8031   -2.8238    0.9151 C   0  0  0  0  0  0
    1.4306   -3.5662    0.0021 O   0  0  0  0  0  0
    1.2057   -2.8472    2.1384 N   0  0  0  0  0  0
    1.7859   -2.2022    3.3282 C   0  0  0  0  0  0
    2.4521   -3.3258    4.1534 C   0  0  0  0  0  0
    1.4927   -4.3362    4.4702 O   0  0  0  0  0  0
    0.8900   -4.9340    3.3202 C   0  0  0  0  0  0
    0.1843   -3.8598    2.4588 C   0  0  0  0  0  0
    5.8642   -1.8665   -1.6477 N   0  0  0  0  0  0
    5.2976   -0.3585   -0.0660 O   0  0  0  0  0  0
    7.2452   -1.4276   -1.8309 C   0  0  0  0  0  0
    7.3443   -0.0874   -2.4362 C   0  0  0  0  0  0
    7.4222    0.9647   -2.9118 N   0  0  0  0  0  0
   -0.5398    1.4249   -0.4072 C   0  0  0  0  0  0
   -1.0731    1.1375    0.8580 C   0  0  0  0  0  0
   -1.5857    2.1430    1.6707 C   0  0  0  0  0  0
   -1.5773    3.4593    1.2281 C   0  0  0  0  0  0
   -1.0503    3.7662   -0.0229 C   0  0  0  0  0  0
   -0.5149    2.7708   -0.8583 C   0  0  0  0  0  0
    0.0406    3.2072   -2.2248 C   0  0  0  0  0  0
    0.2222    4.5280   -2.2973 F   0  0  0  0  0  0
    1.2225    2.6515   -2.4815 F   0  0  0  0  0  0
   -0.8232    2.8734   -3.1833 F   0  0  0  0  0  0
    2.3451    0.9173   -1.2313 H   0  0  0  0  0  0
    1.9021   -1.8978   -2.1259 H   0  0  0  0  0  0
    3.1473   -0.7907   -2.6402 H   0  0  0  0  0  0
    3.7068   -2.9732   -1.0025 H   0  0  0  0  0  0
    3.6121   -1.8282    1.4230 H   0  0  0  0  0  0
    1.3365   -0.2274    1.1644 H   0  0  0  0  0  0
    2.9261    0.4028    0.9206 H   0  0  0  0  0  0
    2.3780   -1.3033    3.1586 H   0  0  0  0  0  0
    0.9192   -1.8319    3.8774 H   0  0  0  0  0  0
    3.2944   -3.7607    3.6115 H   0  0  0  0  0  0
    2.8699   -2.9158    5.0727 H   0  0  0  0  0  0
    1.6432   -5.4678    2.7374 H   0  0  0  0  0  0
    0.1690   -5.6863    3.6400 H   0  0  0  0  0  0
   -0.5449   -3.3279    3.0712 H   0  0  0  0  0  0
   -0.3838   -4.2288    1.6036 H   0  0  0  0  0  0
    5.5441   -2.6086   -2.2528 H   0  0  0  0  0  0
    7.7812   -1.4271   -0.8804 H   0  0  0  0  0  0
    7.7566   -2.1317   -2.4872 H   0  0  0  0  0  0
   -1.0968    0.1234    1.2288 H   0  0  0  0  0  0
   -1.9935    1.9000    2.6409 H   0  0  0  0  0  0
   -1.9800    4.2431    1.8527 H   0  0  0  0  0  0
   -1.0659    4.8002   -0.3349 H   0  0  0  0  0  0
  1  2  2  0  0  0
  1  3  2  0  0  0
  1  4  1  0  0  0
  1 23  1  0  0  0
  4  5  1  0  0  0
  4  8  1  0  0  0
  4 33  1  0  0  0
  5  6  1  0  0  0
  5 34  1  0  0  0
  5 35  1  0  0  0
  6  7  1  0  0  0
  6  9  1  0  0  0
  6 36  1  0  0  0
  7  8  1  0  0  0
  7 10  1  0  0  0
  7 37  1  0  0  0
  8 38  1  0  0  0
  8 39  1  0  0  0
  9 18  1  0  0  0
  9 19  2  0  0  0
 10 11  2  0  0  0
 10 12  1  0  0  0
 12 13  1  0  0  0
 12 17  1  0  0  0
 13 14  1  0  0  0
 13 40  1  0  0  0
 13 41  1  0  0  0
 14 15  1  0  0  0
 14 42  1  0  0  0
 14 43  1  0  0  0
 15 16  1  0  0  0
 16 17  1  0  0  0
 16 44  1  0  0  0
 16 45  1  0  0  0
 17 46  1  0  0  0
 17 47  1  0  0  0
 18 20  1  0  0  0
 18 48  1  0  0  0
 20 21  1  0  0  0
 20 49  1  0  0  0
 20 50  1  0  0  0
 21 22  3  0  0  0
 23 24  2  0  0  0
 23 28  1  0  0  0
 24 25  1  0  0  0
 24 51  1  0  0  0
 25 26  2  0  0  0
 25 52  1  0  0  0
 26 27  1  0  0  0
 26 53  1  0  0  0
 27 28  2  0  0  0
 27 54  1  0  0  0
 28 29  1  0  0  0
 29 30  1  0  0  0
 29 31  1  0  0  0
 29 32  1  0  0  0
M  END
> <chembl_id>
CHEMBL3093942

> <chembl_pref_name>
None

> <i_m_ct_stereo_status>
1

> <s_m_source_file>
sdf/inactives_sanitized.sdf

> <i_m_source_file_index>
315

> <i_lp_mmshare_version>
49012

> <i_f3d_flags>
0

> <s_epik_input>
RkMoRikoRiljMVtjSF1bY0hdW2NIXVtjSF1jMVMoPU8pKD1PKVtDQEBIXTJbQ0gyXVtDQEBIXShDKD1PKVtOSF1bQ0gyXUMjTilbQ0BASF0oW0NIMl0yKUMoPU8pTjNbQ0gyXVtDSDJdT1tDSDJdW0NIMl0z

> <s_epik_cmdline>
J2VwaWtfcHl0aG9uJywgJy1waHQnLCAnMC41JywgJy1waCcsICc3LjUnLCAnLW50JywgJy1tYScsICcyMDAnLCAnLWltYWUnLCAnPGluZmlsZS5tYWU+JywgJy1vbWFlJywgJzxvdXRmaWxlLm1hZT4n

> <r_lp_tautomer_probability>
1

> <r_epik_Ionization_Penalty>
  0.0000

> <r_epik_Ionization_Penalty_Charging>
  0.0000

> <r_epik_Ionization_Penalty_Neutral>
  0.0000

> <r_epik_State_Penalty>
 -0.0000

> <r_epik_Charging_Adjusted_Penalty>
0

> <i_epik_Tot_Q>
0

> <i_epik_Tot_abs_Q>
0

> <s_lp_Force_Field>
OPLS3e

> <r_lp_Energy>
25.070614

> <b_lp_Chiralities_Consistent>
1

> <s_lp_Variant>
sdf/inactives_sanitized.sdf:315-1

$$$$
sdf/inactives_sanitized.sdf:316
                    3D
 Schrodinger Suite 2020-1.
 51 53  0  0  1  0            999 V2000
   -0.2327    0.0414   -0.1478 S   0  0  0  0  0  0
   -0.6105   -0.7237   -1.3409 O   0  0  0  0  0  0
   -0.7517   -0.3643    1.1628 O   0  0  0  0  0  0
    1.6660    0.0803   -0.0598 C   0  0  2  0  0  0
    2.2452   -1.3478    0.0244 C   0  0  0  0  0  0
    3.3227   -1.3251    1.1325 C   0  0  2  0  0  0
    2.8562   -0.1959    2.1043 C   0  0  1  0  0  0
    2.1762    0.8440    1.1805 C   0  0  0  0  0  0
    4.7151   -1.0286    0.5147 C   0  0  0  0  0  0
    1.8517   -0.7030    3.1852 C   0  0  0  0  0  0
    1.3395   -1.8186    3.0555 O   0  0  0  0  0  0
    1.4641    0.1451    4.1771 N   0  0  0  0  0  0
    2.2264    1.3486    4.5487 C   0  0  0  0  0  0
    3.0478    0.9744    5.8033 C   0  0  0  0  0  0
    2.1784    0.5128    6.8394 O   0  0  0  0  0  0
    1.3951   -0.6240    6.4675 C   0  0  0  0  0  0
    0.5304   -0.3020    5.2254 C   0  0  0  0  0  0
    5.4880   -2.0980    0.2558 N   0  0  0  0  0  0
    5.1172    0.1264    0.3619 O   0  0  0  0  0  0
    6.8359   -2.0338   -0.3035 C   0  0  0  0  0  0
    6.8628   -1.5027   -1.6781 C   0  0  0  0  0  0
    6.8843   -1.0861   -2.7574 N   0  0  0  0  0  0
   -0.7152    1.8478   -0.4421 C   0  0  0  0  0  0
   -2.2425    1.9727   -0.5510 C   0  0  0  0  0  0
   -2.9277    3.2157   -0.0435 C   0  0  0  0  0  0
   -3.0960    1.8967    0.6894 C   0  0  0  0  0  0
    1.9916    0.5808   -0.9726 H   0  0  0  0  0  0
    1.4769   -2.0617    0.3250 H   0  0  0  0  0  0
    2.6210   -1.6959   -0.9400 H   0  0  0  0  0  0
    3.4327   -2.2734    1.6642 H   0  0  0  0  0  0
    3.7051    0.2016    2.6637 H   0  0  0  0  0  0
    1.3946    1.4250    1.6722 H   0  0  0  0  0  0
    2.9235    1.5783    0.8770 H   0  0  0  0  0  0
    2.7592    1.8570    3.7455 H   0  0  0  0  0  0
    1.4595    2.0698    4.8348 H   0  0  0  0  0  0
    3.7937    0.2125    5.5682 H   0  0  0  0  0  0
    3.6082    1.8410    6.1536 H   0  0  0  0  0  0
    2.0447   -1.4811    6.2782 H   0  0  0  0  0  0
    0.7546   -0.9111    7.3014 H   0  0  0  0  0  0
   -0.0884    0.5719    5.4328 H   0  0  0  0  0  0
   -0.1746   -1.0751    4.9160 H   0  0  0  0  0  0
    5.0980   -3.0205    0.3843 H   0  0  0  0  0  0
    7.4868   -1.4233    0.3244 H   0  0  0  0  0  0
    7.2594   -3.0380   -0.3226 H   0  0  0  0  0  0
   -0.3151    2.4328    0.3856 H   0  0  0  0  0  0
   -0.2231    2.1719   -1.3586 H   0  0  0  0  0  0
   -2.6313    1.5280   -1.4681 H   0  0  0  0  0  0
   -2.3232    4.0015    0.4103 H   0  0  0  0  0  0
   -3.7652    3.6147   -0.6161 H   0  0  0  0  0  0
   -2.6073    1.7590    1.6544 H   0  0  0  0  0  0
   -4.0480    1.3693    0.6276 H   0  0  0  0  0  0
  1  2  2  0  0  0
  1  3  2  0  0  0
  1  4  1  0  0  0
  1 23  1  0  0  0
  4  5  1  0  0  0
  4  8  1  0  0  0
  4 27  1  0  0  0
  5  6  1  0  0  0
  5 28  1  0  0  0
  5 29  1  0  0  0
  6  7  1  0  0  0
  6  9  1  0  0  0
  6 30  1  0  0  0
  7  8  1  0  0  0
  7 10  1  0  0  0
  7 31  1  0  0  0
  8 32  1  0  0  0
  8 33  1  0  0  0
  9 18  1  0  0  0
  9 19  2  0  0  0
 10 11  2  0  0  0
 10 12  1  0  0  0
 12 13  1  0  0  0
 12 17  1  0  0  0
 13 14  1  0  0  0
 13 34  1  0  0  0
 13 35  1  0  0  0
 14 15  1  0  0  0
 14 36  1  0  0  0
 14 37  1  0  0  0
 15 16  1  0  0  0
 16 17  1  0  0  0
 16 38  1  0  0  0
 16 39  1  0  0  0
 17 40  1  0  0  0
 17 41  1  0  0  0
 18 20  1  0  0  0
 18 42  1  0  0  0
 20 21  1  0  0  0
 20 43  1  0  0  0
 20 44  1  0  0  0
 21 22  3  0  0  0
 23 24  1  0  0  0
 23 45  1  0  0  0
 23 46  1  0  0  0
 24 25  1  0  0  0
 24 26  1  0  0  0
 24 47  1  0  0  0
 25 26  1  0  0  0
 25 48  1  0  0  0
 25 49  1  0  0  0
 26 50  1  0  0  0
 26 51  1  0  0  0
M  END
> <chembl_id>
CHEMBL3093939

> <chembl_pref_name>
None

> <i_m_ct_stereo_status>
1

> <s_m_source_file>
sdf/inactives_sanitized.sdf

> <i_m_source_file_index>
316

> <i_lp_mmshare_version>
49012

> <i_f3d_flags>
0

> <s_epik_input>
W0NIMl0xW0NIMl1bQ0hdMVtDSDJdUyg9TykoPU8pW0NAQEhdMltDSDJdW0NAQEhdKEMoPU8pW05IXVtDSDJdQyNOKVtDQEBIXShbQ0gyXTIpQyg9TylOM1tDSDJdW0NIMl1PW0NIMl1bQ0gyXTM=

> <s_epik_cmdline>
J2VwaWtfcHl0aG9uJywgJy1waHQnLCAnMC41JywgJy1waCcsICc3LjUnLCAnLW50JywgJy1tYScsICcyMDAnLCAnLWltYWUnLCAnPGluZmlsZS5tYWU+JywgJy1vbWFlJywgJzxvdXRmaWxlLm1hZT4n

> <r_lp_tautomer_probability>
1

> <r_epik_Ionization_Penalty>
  0.0000

> <r_epik_Ionization_Penalty_Charging>
  0.0000

> <r_epik_Ionization_Penalty_Neutral>
  0.0000

> <r_epik_State_Penalty>
 -0.0000

> <r_epik_Charging_Adjusted_Penalty>
0

> <i_epik_Tot_Q>
0

> <i_epik_Tot_abs_Q>
0

> <s_lp_Force_Field>
OPLS3e

> <r_lp_Energy>
9.72392

> <b_lp_Chiralities_Consistent>
1

> <s_lp_Variant>
sdf/inactives_sanitized.sdf:316-1

$$$$
sdf/inactives_sanitized.sdf:317
                    3D
 Schrodinger Suite 2020-1.
 31 31  0  0  1  0            999 V2000
   -4.4682    0.9239    1.1312 C   0  0  0  0  0  0
   -4.9659    0.2142    0.0306 C   0  0  0  0  0  0
   -4.1187   -0.2134   -0.9845 C   0  0  0  0  0  0
   -2.7597    0.0679   -0.9188 C   0  0  0  0  0  0
   -2.2264    0.7871    0.1597 C   0  0  0  0  0  0
   -3.0867    1.2079    1.2000 C   0  0  0  0  0  0
   -5.4366    1.3730    2.2351 C   0  0  0  0  0  0
   -6.7018    1.0278    1.9857 F   0  0  0  0  0  0
   -5.0877    0.8203    3.3976 F   0  0  0  0  0  0
   -5.3975    2.6998    2.3627 F   0  0  0  0  0  0
   -2.4568    2.0567    2.5846 Cl  0  0  0  0  0  0
   -0.7414    1.0568    0.1887 C   0  0  0  0  0  0
    0.0417   -0.0181   -0.0274 N   0  0  0  0  0  0
   -0.3070    2.1912    0.3927 O   0  0  0  0  0  0
    1.5107   -0.0270   -0.0385 C   0  0  2  0  0  0
    1.9145   -0.7027   -1.3464 C   0  0  0  0  0  0
    2.0218   -0.7768    1.2112 C   0  0  0  0  0  0
    2.4534   -1.8127   -1.4045 O   0  0  0  0  0  0
    1.6587    0.1376   -2.6719 C   0  0  0  0  0  0
    1.9825   -0.5273   -3.7869 N   0  0  0  0  0  0
    1.2085    1.2818   -2.6467 O   0  0  0  0  0  0
   -6.0175   -0.0190   -0.0491 H   0  0  0  0  0  0
   -4.5171   -0.7627   -1.8249 H   0  0  0  0  0  0
   -2.1234   -0.2716   -1.7246 H   0  0  0  0  0  0
   -0.3967   -0.9253   -0.0910 H   0  0  0  0  0  0
    1.9249    0.9837   -0.0088 H   0  0  0  0  0  0
    3.1114   -0.8307    1.2256 H   0  0  0  0  0  0
    1.6390   -1.7977    1.2640 H   0  0  0  0  0  0
    1.7126   -0.2670    2.1247 H   0  0  0  0  0  0
    2.3510   -1.4658   -3.7308 H   0  0  0  0  0  0
    1.8648   -0.0912   -4.6898 H   0  0  0  0  0  0
  1  6  2  0  0  0
  1  2  1  0  0  0
  1  7  1  0  0  0
  2  3  2  0  0  0
  2 22  1  0  0  0
  3  4  1  0  0  0
  3 23  1  0  0  0
  4  5  2  0  0  0
  4 24  1  0  0  0
  5  6  1  0  0  0
  5 12  1  0  0  0
  6 11  1  0  0  0
  7  8  1  0  0  0
  7  9  1  0  0  0
  7 10  1  0  0  0
 12 13  1  0  0  0
 12 14  2  0  0  0
 13 15  1  0  0  0
 13 25  1  0  0  0
 15 16  1  0  0  0
 15 17  1  0  0  0
 15 26  1  0  0  0
 16 18  2  0  0  0
 16 19  1  0  0  0
 17 27  1  0  0  0
 17 28  1  0  0  0
 17 29  1  0  0  0
 19 20  1  0  0  0
 19 21  2  0  0  0
 20 30  1  0  0  0
 20 31  1  0  0  0
M  END
> <chembl_id>
CHEMBL1289192

> <chembl_pref_name>
None

> <s_m_source_file>
sdf/inactives_sanitized.sdf

> <i_m_source_file_index>
317

> <i_lp_mmshare_version>
49012

> <i_m_ct_stereo_status>
1

> <i_f3d_flags>
0

> <s_epik_input>
RkMoRikoRiljMVtjSF1bY0hdW2NIXWMoYzFDbClDKD1PKVtOSF1bQ0BASF0oW0NIM10pQyg9TylDKD1PKVtOSDJd

> <s_epik_cmdline>
J2VwaWtfcHl0aG9uJywgJy1waHQnLCAnMC41JywgJy1waCcsICc3LjUnLCAnLW50JywgJy1tYScsICcyMDAnLCAnLWltYWUnLCAnPGluZmlsZS5tYWU+JywgJy1vbWFlJywgJzxvdXRmaWxlLm1hZT4n

> <r_lp_tautomer_probability>
1

> <r_epik_Ionization_Penalty>
  0.0001

> <r_epik_Ionization_Penalty_Charging>
  0.0000

> <r_epik_Ionization_Penalty_Neutral>
  0.0001

> <r_epik_State_Penalty>
 -0.0000

> <r_epik_Charging_Adjusted_Penalty>
0

> <i_epik_Tot_Q>
0

> <i_epik_Tot_abs_Q>
0

> <s_lp_Force_Field>
OPLS3e

> <r_lp_Energy>
24.263526

> <b_lp_Chiralities_Consistent>
1

> <s_lp_Variant>
sdf/inactives_sanitized.sdf:317-1

$$$$
sdf/inactives_sanitized.sdf:318
                    3D
 Schrodinger Suite 2020-1.
 57 61  0  0  1  0            999 V2000
    4.5603   -1.6493    0.5286 C   0  0  0  0  0  0
    3.7118   -1.1723   -0.6368 C   0  0  0  0  0  0
    4.3562   -2.5419   -0.6672 C   0  0  0  0  0  0
   -1.1860   -0.5757   -5.4553 C   0  0  0  0  0  0
    0.0610   -0.5246   -4.5458 C   0  0  0  0  0  0
   -0.2659   -1.1452   -3.2559 N   0  0  0  0  0  0
   -0.7070   -2.5414   -3.3617 C   0  0  0  0  0  0
   -1.9477   -2.6081   -4.2812 C   0  0  0  0  0  0
   -1.8667   -1.8802   -5.5620 N   0  0  0  0  0  0
   -0.4346   -0.3792   -2.1407 C   0  0  0  0  0  0
   -0.6401   -1.0568   -0.7501 C   0  0  2  0  0  0
   -0.2953    0.8466   -2.1696 O   0  0  0  0  0  0
   -2.1700   -1.2095   -0.5288 C   0  0  0  0  0  0
   -2.5047   -1.7121    0.8859 C   0  0  0  0  0  0
   -1.9174   -0.7923    1.9668 C   0  0  0  0  0  0
   -0.3865   -0.6827    1.8619 C   0  0  0  0  0  0
    0.0792   -0.2954    0.4318 C   0  0  1  0  0  0
    1.6325   -0.2735    0.3892 C   0  0  0  0  0  0
    2.2636   -1.1009   -0.4641 N   0  0  0  0  0  0
    2.2493    0.4579    1.1656 O   0  0  0  0  0  0
    4.2821   -0.1095   -1.4834 C   0  0  0  0  0  0
    4.7293    0.7244   -2.1492 N   0  0  0  0  0  0
   -2.6533   -2.1843   -6.6523 C   0  0  0  0  0  0
   -3.6576   -3.6359   -6.6534 S   0  0  0  0  0  0
   -2.7211   -1.4551   -7.7397 N   0  0  0  0  0  0
   -3.5776   -1.9828   -8.6533 C   0  0  0  0  0  0
   -4.2077   -3.1899   -8.2571 C   0  0  0  0  0  0
   -5.0830   -3.8735   -8.9976 N   0  0  0  0  0  0
   -5.3616   -3.3348  -10.2156 C   0  0  0  0  0  0
   -4.7978   -2.1530  -10.7046 C   0  0  0  0  0  0
   -3.8827   -1.4498   -9.9164 C   0  0  0  0  0  0
    5.5407   -1.1978    0.6840 H   0  0  0  0  0  0
    4.0733   -1.9167    1.4670 H   0  0  0  0  0  0
    3.7307   -3.4275   -0.5498 H   0  0  0  0  0  0
    5.1955   -2.7117   -1.3422 H   0  0  0  0  0  0
   -1.9359    0.0960   -5.0340 H   0  0  0  0  0  0
   -0.9426   -0.1766   -6.4405 H   0  0  0  0  0  0
    0.8595   -1.1016   -5.0141 H   0  0  0  0  0  0
    0.4441    0.4926   -4.4510 H   0  0  0  0  0  0
    0.0964   -3.1178   -3.8222 H   0  0  0  0  0  0
   -0.9201   -3.0281   -2.4129 H   0  0  0  0  0  0
   -2.2261   -3.6504   -4.4302 H   0  0  0  0  0  0
   -2.7795   -2.1393   -3.7532 H   0  0  0  0  0  0
   -0.1912   -2.0485   -0.7938 H   0  0  0  0  0  0
   -2.6700   -0.2418   -0.6130 H   0  0  0  0  0  0
   -2.6047   -1.9279   -1.2250 H   0  0  0  0  0  0
   -3.5871   -1.7752    1.0068 H   0  0  0  0  0  0
   -2.1253   -2.7268    1.0177 H   0  0  0  0  0  0
   -2.3620    0.2007    1.8818 H   0  0  0  0  0  0
   -2.1931   -1.1628    2.9551 H   0  0  0  0  0  0
   -0.0674    0.0518    2.6040 H   0  0  0  0  0  0
   -0.0169   -1.6781    2.1170 H   0  0  0  0  0  0
   -0.1705    0.7645    0.3480 H   0  0  0  0  0  0
    1.7079   -1.6147   -1.1318 H   0  0  0  0  0  0
   -6.0703   -3.8833  -10.8185 H   0  0  0  0  0  0
   -5.0675   -1.7863  -11.6841 H   0  0  0  0  0  0
   -3.4309   -0.5337  -10.2679 H   0  0  0  0  0  0
  1  2  1  0  0  0
  1  3  1  0  0  0
  1 32  1  0  0  0
  1 33  1  0  0  0
  2  3  1  0  0  0
  2 19  1  0  0  0
  2 21  1  0  0  0
  3 34  1  0  0  0
  3 35  1  0  0  0
  4  5  1  0  0  0
  4  9  1  0  0  0
  4 36  1  0  0  0
  4 37  1  0  0  0
  5  6  1  0  0  0
  5 38  1  0  0  0
  5 39  1  0  0  0
  6  7  1  0  0  0
  6 10  1  0  0  0
  7  8  1  0  0  0
  7 40  1  0  0  0
  7 41  1  0  0  0
  8  9  1  0  0  0
  8 42  1  0  0  0
  8 43  1  0  0  0
  9 23  1  0  0  0
 10 11  1  0  0  0
 10 12  2  0  0  0
 11 13  1  0  0  0
 11 17  1  0  0  0
 11 44  1  0  0  0
 13 14  1  0  0  0
 13 45  1  0  0  0
 13 46  1  0  0  0
 14 15  1  0  0  0
 14 47  1  0  0  0
 14 48  1  0  0  0
 15 16  1  0  0  0
 15 49  1  0  0  0
 15 50  1  0  0  0
 16 17  1  0  0  0
 16 51  1  0  0  0
 16 52  1  0  0  0
 17 18  1  0  0  0
 17 53  1  0  0  0
 18 19  1  0  0  0
 18 20  2  0  0  0
 19 54  1  0  0  0
 21 22  3  0  0  0
 23 24  1  0  0  0
 23 25  2  0  0  0
 24 27  1  0  0  0
 25 26  1  0  0  0
 26 27  2  0  0  0
 26 31  1  0  0  0
 27 28  1  0  0  0
 28 29  2  0  0  0
 29 30  1  0  0  0
 29 55  1  0  0  0
 30 31  2  0  0  0
 30 56  1  0  0  0
 31 57  1  0  0  0
M  END
> <chembl_id>
CHEMBL2070949

> <chembl_pref_name>
None

> <i_m_ct_stereo_status>
1

> <s_m_source_file>
sdf/inactives_sanitized.sdf

> <i_m_source_file_index>
318

> <i_lp_mmshare_version>
49012

> <i_f3d_flags>
0

> <s_epik_input>
W0NIMl0xW0NIMl1DMShDI04pW05IXUMoPU8pW0NAQEhdMltDSDJdW0NIMl1bQ0gyXVtDSDJdW0NASF0yQyg9TylOM1tDSDJdW0NIMl1OKFtDSDJdW0NIMl0zKWMobjQpc2MoYzQ1KW5bY0hdW2NIXVtjSF01

> <s_epik_cmdline>
J2VwaWtfcHl0aG9uJywgJy1waHQnLCAnMC41JywgJy1waCcsICc3LjUnLCAnLW50JywgJy1tYScsICcyMDAnLCAnLWltYWUnLCAnPGluZmlsZS5tYWU+JywgJy1vbWFlJywgJzxvdXRmaWxlLm1hZT4n

> <r_lp_tautomer_probability>
1

> <r_epik_Ionization_Penalty>
  0.0000

> <r_epik_Ionization_Penalty_Charging>
  0.0000

> <r_epik_Ionization_Penalty_Neutral>
  0.0000

> <r_epik_State_Penalty>
 -0.0000

> <r_epik_Charging_Adjusted_Penalty>
0

> <i_epik_Tot_Q>
0

> <i_epik_Tot_abs_Q>
0

> <s_lp_Force_Field>
OPLS3e

> <r_lp_Energy>
68.40288

> <b_lp_Chiralities_Consistent>
1

> <s_lp_Variant>
sdf/inactives_sanitized.sdf:318-1

$$$$
sdf/inactives_sanitized.sdf:319
                    3D
 Schrodinger Suite 2020-1.
 57 58  0  0  1  0            999 V2000
    2.0967   -1.2987    2.0973 C   0  0  0  0  0  0
    2.0791   -1.2399    0.7083 N   0  0  0  0  0  0
    0.0657    0.1271    0.0387 C   0  0  0  0  0  0
    1.6049   -0.0396   -0.0039 C   0  0  2  0  0  0
    1.7780   -0.3933    2.8728 O   0  0  0  0  0  0
   -0.6641   -0.8629    0.1218 O   0  0  0  0  0  0
    2.5250   -2.5191    2.4719 O   0  0  0  0  0  0
    2.1046   -0.0943   -1.4740 C   0  0  0  0  0  0
   -0.3863    1.3891   -0.0539 N   0  0  0  0  0  0
   -1.7226    2.9545    2.1761 N   0  0  0  0  0  0
    2.6418   -2.8614    3.8481 C   0  0  0  0  0  0
   -1.9221    4.0270    3.0626 C   0  0  0  0  0  0
    3.2145   -4.2622    3.9828 C   0  0  0  0  0  0
    3.6429   -0.0620   -1.6494 C   0  0  0  0  0  0
   -1.7968    1.7778   -0.0371 C   0  0  0  0  0  0
   -2.0409    3.0729    0.7560 C   0  0  0  0  0  0
   -1.3867    3.9066    4.3476 C   0  0  0  0  0  0
   -2.6254    5.1893    2.7131 C   0  0  0  0  0  0
    2.4628   -5.2657    4.5991 C   0  0  0  0  0  0
    4.4958   -4.5413    3.4991 C   0  0  0  0  0  0
    4.2721    1.2341   -1.0942 C   0  0  0  0  0  0
    4.0392   -0.3200   -3.1191 C   0  0  0  0  0  0
    2.9909   -6.5479    4.7284 C   0  0  0  0  0  0
   -1.5463    4.9330    5.2751 C   0  0  0  0  0  0
   -2.7862    6.2151    3.6414 C   0  0  0  0  0  0
    5.0227   -5.8238    3.6280 C   0  0  0  0  0  0
    4.2678   -6.8212    4.2422 C   0  0  0  0  0  0
   -2.2457    6.0828    4.9179 C   0  0  0  0  0  0
    2.2753   -2.0737    0.1742 H   0  0  0  0  0  0
    2.0462    0.8410    0.4691 H   0  0  0  0  0  0
    1.7087   -0.9951   -1.9480 H   0  0  0  0  0  0
    1.6844    0.7391   -2.0410 H   0  0  0  0  0  0
    0.2832    2.1372   -0.1613 H   0  0  0  0  0  0
   -0.9860    2.3073    2.4196 H   0  0  0  0  0  0
    3.2982   -2.1591    4.3649 H   0  0  0  0  0  0
    1.6638   -2.8062    4.3296 H   0  0  0  0  0  0
    4.0574   -0.8916   -1.0753 H   0  0  0  0  0  0
   -2.1366    1.9032   -1.0657 H   0  0  0  0  0  0
   -2.4163    0.9878    0.3940 H   0  0  0  0  0  0
   -3.0876    3.3635    0.6602 H   0  0  0  0  0  0
   -1.4722    3.8971    0.3223 H   0  0  0  0  0  0
   -0.8421    3.0177    4.6338 H   0  0  0  0  0  0
   -3.0528    5.3146    1.7298 H   0  0  0  0  0  0
    1.4726   -5.0564    4.9770 H   0  0  0  0  0  0
    5.0809   -3.7674    3.0236 H   0  0  0  0  0  0
    3.5285    2.0166   -0.9411 H   0  0  0  0  0  0
    5.0381    1.6463   -1.7510 H   0  0  0  0  0  0
    4.7490    1.0460   -0.1318 H   0  0  0  0  0  0
    4.5011    0.5478   -3.5899 H   0  0  0  0  0  0
    3.1800   -0.5880   -3.7345 H   0  0  0  0  0  0
    4.7511   -1.1430   -3.1884 H   0  0  0  0  0  0
    2.4131   -7.3270    5.2036 H   0  0  0  0  0  0
   -1.1292    4.8372    6.2667 H   0  0  0  0  0  0
   -3.3277    7.1100    3.3719 H   0  0  0  0  0  0
    6.0117   -6.0441    3.2541 H   0  0  0  0  0  0
    4.6770   -7.8158    4.3426 H   0  0  0  0  0  0
   -2.3702    6.8786    5.6373 H   0  0  0  0  0  0
  1  2  1  0  0  0
  1  5  2  0  0  0
  1  7  1  0  0  0
  2  4  1  0  0  0
  2 29  1  0  0  0
  3  4  1  0  0  0
  3  6  2  0  0  0
  3  9  1  0  0  0
  4  8  1  0  0  0
  4 30  1  0  0  0
  7 11  1  0  0  0
  8 14  1  0  0  0
  8 31  1  0  0  0
  8 32  1  0  0  0
  9 15  1  0  0  0
  9 33  1  0  0  0
 10 16  1  0  0  0
 10 12  1  0  0  0
 10 34  1  0  0  0
 11 13  1  0  0  0
 11 35  1  0  0  0
 11 36  1  0  0  0
 12 17  2  0  0  0
 12 18  1  0  0  0
 13 19  2  0  0  0
 13 20  1  0  0  0
 14 21  1  0  0  0
 14 22  1  0  0  0
 14 37  1  0  0  0
 15 16  1  0  0  0
 15 38  1  0  0  0
 15 39  1  0  0  0
 16 40  1  0  0  0
 16 41  1  0  0  0
 17 24  1  0  0  0
 17 42  1  0  0  0
 18 25  2  0  0  0
 18 43  1  0  0  0
 19 23  1  0  0  0
 19 44  1  0  0  0
 20 26  2  0  0  0
 20 45  1  0  0  0
 21 46  1  0  0  0
 21 47  1  0  0  0
 21 48  1  0  0  0
 22 49  1  0  0  0
 22 50  1  0  0  0
 22 51  1  0  0  0
 23 27  2  0  0  0
 23 52  1  0  0  0
 24 28  2  0  0  0
 24 53  1  0  0  0
 25 28  1  0  0  0
 25 54  1  0  0  0
 26 27  1  0  0  0
 26 55  1  0  0  0
 27 56  1  0  0  0
 28 57  1  0  0  0
M  END
> <chembl_id>
CHEMBL73908

> <chembl_pref_name>
None

> <i_m_ct_stereo_status>
1

> <s_m_source_file>
sdf/inactives_sanitized.sdf

> <i_m_source_file_index>
319

> <i_lp_mmshare_version>
49012

> <i_f3d_flags>
0

> <s_epik_input>
W2NIXTFbY0hdW2NIXVtjSF1bY0hdYzFbQ0gyXU9DKD1PKVtOSF1bQ0BASF0oW0NIMl1bQ0hdKFtDSDNdKVtDSDNdKUMoPU8pW05IXVtDSDJdW0NIMl1bTkhdYzJbY0hdW2NIXVtjSF1bY0hdW2NIXTI=

> <s_epik_cmdline>
J2VwaWtfcHl0aG9uJywgJy1waHQnLCAnMC41JywgJy1waCcsICc3LjUnLCAnLW50JywgJy1tYScsICcyMDAnLCAnLWltYWUnLCAnPGluZmlsZS5tYWU+JywgJy1vbWFlJywgJzxvdXRmaWxlLm1hZT4n

> <r_lp_tautomer_probability>
1

> <r_epik_Ionization_Penalty>
  0.0002

> <r_epik_Ionization_Penalty_Charging>
  0.0000

> <r_epik_Ionization_Penalty_Neutral>
  0.0002

> <r_epik_State_Penalty>
 -0.0000

> <r_epik_Charging_Adjusted_Penalty>
0

> <i_epik_Tot_Q>
0

> <i_epik_Tot_abs_Q>
0

> <s_epik_Chemistry_Notes>
This compound has an ester and may undergo hydrolysis at high or low pH.

> <s_lp_Force_Field>
OPLS3e

> <r_lp_Energy>
26.96173

> <b_lp_Chiralities_Consistent>
1

> <s_lp_Variant>
sdf/inactives_sanitized.sdf:319-1

$$$$
sdf/inactives_sanitized.sdf:320
                    3D
 Schrodinger Suite 2020-1.
 65 67  0  0  1  0            999 V2000
    2.5809    0.3123   -2.0553 C   0  0  0  0  0  0
    2.9271    1.5486   -1.7839 N   0  0  0  0  0  0
    1.9827   -0.6518   -1.1283 C   0  0  0  0  0  0
    3.4370    2.2075   -2.8140 C   0  0  0  0  0  0
    2.8930   -0.1535   -3.6998 S   0  0  0  0  0  0
   -0.4495    1.0794   -0.0240 C   0  0  0  0  0  0
    3.5113    1.4432   -3.9824 C   0  0  0  0  0  0
    0.2102   -0.0744    0.3901 N   0  0  0  0  0  0
    1.6749   -0.2057    0.3049 C   0  0  1  0  0  0
    1.7182   -1.8016   -1.4901 O   0  0  0  0  0  0
   -1.7812    0.8944    0.1214 O   0  0  0  0  0  0
    0.0749    2.1095   -0.4547 O   0  0  0  0  0  0
    3.8659    3.6396   -2.6614 C   0  0  0  0  0  0
   -2.7340    1.8891   -0.2612 C   0  0  2  0  0  0
   -4.0285    1.6004    0.5351 C   0  0  0  0  0  0
   -5.2046    2.5846    0.3103 C   0  0  0  0  0  0
    2.1945   -1.2262    1.3519 C   0  0  0  0  0  0
    4.6904    4.2297   -3.6288 C   0  0  0  0  0  0
    3.4555    4.4046   -1.5592 C   0  0  0  0  0  0
   -2.9422    1.8700   -1.7914 C   0  0  0  0  0  0
   -4.8477    4.0493    0.6663 C   0  0  0  0  0  0
   -6.4412    2.1654    1.1402 C   0  0  0  0  0  0
    3.7331   -1.3707    1.3980 C   0  0  0  0  0  0
    4.2490   -2.2509    2.5527 C   0  0  0  0  0  0
    3.8427   -3.7290    2.4484 C   0  0  0  0  0  0
    3.8616    5.7299   -1.4279 C   0  0  0  0  0  0
    5.0975    5.5549   -3.4979 C   0  0  0  0  0  0
   -7.6509    3.0782    0.8539 C   0  0  0  0  0  0
   -6.0235    5.0036    0.3724 C   0  0  0  0  0  0
   -7.3107    4.5635    1.1027 C   0  0  0  0  0  0
    4.6814    6.2996   -2.3979 C   0  0  0  0  0  0
    3.8764    1.7279   -4.9580 H   0  0  0  0  0  0
   -0.3289   -0.8715    0.6951 H   0  0  0  0  0  0
    2.1390    0.7516    0.5527 H   0  0  0  0  0  0
   -2.3563    2.8673    0.0406 H   0  0  0  0  0  0
   -4.3659    0.5895    0.2974 H   0  0  0  0  0  0
   -3.7857    1.5836    1.5993 H   0  0  0  0  0  0
   -5.4964    2.5539   -0.7409 H   0  0  0  0  0  0
    1.8473   -0.9106    2.3375 H   0  0  0  0  0  0
    1.7313   -2.2004    1.1852 H   0  0  0  0  0  0
    5.0285    3.6671   -4.4862 H   0  0  0  0  0  0
    2.8158    3.9798   -0.7990 H   0  0  0  0  0  0
   -3.6248    2.6574   -2.1101 H   0  0  0  0  0  0
   -3.3517    0.9159   -2.1253 H   0  0  0  0  0  0
   -2.0049    2.0321   -2.3241 H   0  0  0  0  0  0
   -4.5488    4.1175    1.7139 H   0  0  0  0  0  0
   -3.9706    4.3750    0.1069 H   0  0  0  0  0  0
   -6.7026    1.1301    0.9168 H   0  0  0  0  0  0
   -6.1994    2.1665    2.2047 H   0  0  0  0  0  0
    4.1004   -1.7733    0.4529 H   0  0  0  0  0  0
    4.1789   -0.3797    1.4963 H   0  0  0  0  0  0
    5.3379   -2.1910    2.5786 H   0  0  0  0  0  0
    3.9068   -1.8455    3.5058 H   0  0  0  0  0  0
    4.2923   -4.3111    3.2533 H   0  0  0  0  0  0
    4.1705   -4.1638    1.5036 H   0  0  0  0  0  0
    2.7624   -3.8556    2.5199 H   0  0  0  0  0  0
    3.5414    6.3131   -0.5770 H   0  0  0  0  0  0
    5.7349    6.0030   -4.2459 H   0  0  0  0  0  0
   -7.9704    2.9457   -0.1808 H   0  0  0  0  0  0
   -8.4974    2.7814    1.4746 H   0  0  0  0  0  0
   -5.7597    6.0210    0.6635 H   0  0  0  0  0  0
   -6.2078    5.0329   -0.7025 H   0  0  0  0  0  0
   -8.1463    5.1934    0.7957 H   0  0  0  0  0  0
   -7.1866    4.7270    2.1745 H   0  0  0  0  0  0
    4.9972    7.3276   -2.2963 H   0  0  0  0  0  0
  1  2  2  0  0  0
  1  3  1  0  0  0
  1  5  1  0  0  0
  2  4  1  0  0  0
  3  9  1  0  0  0
  3 10  2  0  0  0
  4 13  1  0  0  0
  4  7  2  0  0  0
  5  7  1  0  0  0
  6  8  1  0  0  0
  6 11  1  0  0  0
  6 12  2  0  0  0
  7 32  1  0  0  0
  8  9  1  0  0  0
  8 33  1  0  0  0
  9 17  1  0  0  0
  9 34  1  0  0  0
 11 14  1  0  0  0
 13 18  2  0  0  0
 13 19  1  0  0  0
 14 15  1  0  0  0
 14 20  1  0  0  0
 14 35  1  0  0  0
 15 16  1  0  0  0
 15 36  1  0  0  0
 15 37  1  0  0  0
 16 21  1  0  0  0
 16 22  1  0  0  0
 16 38  1  0  0  0
 17 23  1  0  0  0
 17 39  1  0  0  0
 17 40  1  0  0  0
 18 27  1  0  0  0
 18 41  1  0  0  0
 19 26  2  0  0  0
 19 42  1  0  0  0
 20 43  1  0  0  0
 20 44  1  0  0  0
 20 45  1  0  0  0
 21 29  1  0  0  0
 21 46  1  0  0  0
 21 47  1  0  0  0
 22 28  1  0  0  0
 22 48  1  0  0  0
 22 49  1  0  0  0
 23 24  1  0  0  0
 23 50  1  0  0  0
 23 51  1  0  0  0
 24 25  1  0  0  0
 24 52  1  0  0  0
 24 53  1  0  0  0
 25 54  1  0  0  0
 25 55  1  0  0  0
 25 56  1  0  0  0
 26 31  1  0  0  0
 26 57  1  0  0  0
 27 31  2  0  0  0
 27 58  1  0  0  0
 28 30  1  0  0  0
 28 59  1  0  0  0
 28 60  1  0  0  0
 29 30  1  0  0  0
 29 61  1  0  0  0
 29 62  1  0  0  0
 30 63  1  0  0  0
 30 64  1  0  0  0
 31 65  1  0  0  0
M  END
> <chembl_id>
CHEMBL181105

> <chembl_pref_name>
None

> <i_m_ct_stereo_status>
1

> <s_m_source_file>
sdf/inactives_sanitized.sdf

> <i_m_source_file_index>
320

> <i_lp_mmshare_version>
49012

> <i_f3d_flags>
0

> <s_epik_input>
W2NIXTFbY0hdW2NIXVtjSF1bY0hdYzEtYyhbY0hdczIpbmMyQyg9TylbQ0BIXShbQ0gyXVtDSDJdW0NIMl1bQ0gzXSlbTkhdQyg9TylPW0NAQEhdKFtDSDNdKVtDSDJdW0NIXTNbQ0gyXVtDSDJdW0NIMl1bQ0gyXVtDSDJdMw==

> <s_epik_cmdline>
J2VwaWtfcHl0aG9uJywgJy1waHQnLCAnMC41JywgJy1waCcsICc3LjUnLCAnLW50JywgJy1tYScsICcyMDAnLCAnLWltYWUnLCAnPGluZmlsZS5tYWU+JywgJy1vbWFlJywgJzxvdXRmaWxlLm1hZT4n

> <r_lp_tautomer_probability>
1

> <r_epik_Ionization_Penalty>
  0.0000

> <r_epik_Ionization_Penalty_Charging>
  0.0000

> <r_epik_Ionization_Penalty_Neutral>
  0.0000

> <r_epik_State_Penalty>
 -0.0000

> <r_epik_Charging_Adjusted_Penalty>
0

> <i_epik_Tot_Q>
0

> <i_epik_Tot_abs_Q>
0

> <s_epik_Chemistry_Notes>
This compound has an ester and may undergo hydrolysis at high or low pH.

> <s_lp_Force_Field>
OPLS3e

> <r_lp_Energy>
36.933451

> <b_lp_Chiralities_Consistent>
1

> <s_lp_Variant>
sdf/inactives_sanitized.sdf:320-1

$$$$
sdf/inactives_sanitized.sdf:321
                    3D
 Schrodinger Suite 2020-1.
 43 45  0  0  1  0            999 V2000
    6.6419    1.0427   -2.0455 C   0  0  0  0  0  0
    6.6809    2.1292   -3.0993 C   0  0  0  0  0  0
    6.5130    2.5030   -1.6496 C   0  0  0  0  0  0
    0.0518    0.1769    0.7313 S   0  0  0  0  0  0
   -0.6840   -0.8750    0.0247 O   0  0  0  0  0  0
   -0.1796    0.3700    2.1674 O   0  0  0  0  0  0
    1.9092   -0.1282    0.4855 C   0  0  2  0  0  0
    2.2971   -0.2845   -0.9832 C   0  0  0  0  0  0
    3.6109   -1.0807   -0.9805 C   0  0  2  0  0  0
    3.5233   -1.9519    0.2902 N   0  3  0  0  0  0
    2.3776   -1.4164    1.1685 C   0  0  0  0  0  0
    4.8349   -0.1481   -0.8319 C   0  0  0  0  0  0
    5.4531    0.1967   -1.9745 N   0  0  0  0  0  0
    5.2002    0.2616    0.2727 O   0  0  0  0  0  0
    7.9016    0.3664   -1.6884 C   0  0  0  0  0  0
    8.8901   -0.1655   -1.4080 N   0  0  0  0  0  0
   -0.2194    1.7889   -0.0567 C   0  0  0  0  0  0
    0.3008    2.8767    0.6583 C   0  0  0  0  0  0
    0.1832    4.1780    0.1824 C   0  0  0  0  0  0
   -0.4604    4.4144   -1.0249 C   0  0  0  0  0  0
   -0.9835    3.3489   -1.7513 C   0  0  0  0  0  0
   -0.8771    2.0239   -1.2934 C   0  0  0  0  0  0
   -1.4972    0.9159   -2.1586 C   0  0  0  0  0  0
   -2.0090    1.3803   -3.3009 F   0  0  0  0  0  0
   -0.5778    0.0123   -2.4932 F   0  0  0  0  0  0
   -2.4949    0.3272   -1.4994 F   0  0  0  0  0  0
    7.6293    2.3531   -3.5890 H   0  0  0  0  0  0
    5.8288    2.2508   -3.7689 H   0  0  0  0  0  0
    7.3453    2.9824   -1.1331 H   0  0  0  0  0  0
    5.5456    2.8839   -1.3204 H   0  0  0  0  0  0
    2.4001    0.7423    0.9234 H   0  0  0  0  0  0
    1.5416   -0.8840   -1.4917 H   0  0  0  0  0  0
    2.3427    0.6636   -1.5229 H   0  0  0  0  0  0
    3.7444   -1.7264   -1.8505 H   0  0  0  0  0  0
    3.3607   -2.9211    0.0555 H   0  0  0  0  0  0
    1.6247   -2.2061    1.1521 H   0  0  0  0  0  0
    2.7653   -1.2786    2.1787 H   0  0  0  0  0  0
    5.1701   -0.2509   -2.8342 H   0  0  0  0  0  0
    0.8079    2.7181    1.5992 H   0  0  0  0  0  0
    0.5899    5.0020    0.7501 H   0  0  0  0  0  0
   -0.5567    5.4233   -1.3986 H   0  0  0  0  0  0
   -1.4806    3.5765   -2.6829 H   0  0  0  0  0  0
    4.3962   -1.9020    0.7974 H   0  0  0  0  0  0
  1  2  1  0  0  0
  1  3  1  0  0  0
  1 13  1  0  0  0
  1 15  1  0  0  0
  2  3  1  0  0  0
  2 27  1  0  0  0
  2 28  1  0  0  0
  3 29  1  0  0  0
  3 30  1  0  0  0
  4  5  2  0  0  0
  4  6  2  0  0  0
  4  7  1  0  0  0
  4 17  1  0  0  0
  7  8  1  0  0  0
  7 11  1  0  0  0
  7 31  1  0  0  0
  8  9  1  0  0  0
  8 32  1  0  0  0
  8 33  1  0  0  0
  9 10  1  0  0  0
  9 12  1  0  0  0
  9 34  1  0  0  0
 10 11  1  0  0  0
 10 35  1  0  0  0
 10 43  1  0  0  0
 11 36  1  0  0  0
 11 37  1  0  0  0
 12 13  1  0  0  0
 12 14  2  0  0  0
 13 38  1  0  0  0
 15 16  3  0  0  0
 17 18  2  0  0  0
 17 22  1  0  0  0
 18 19  1  0  0  0
 18 39  1  0  0  0
 19 20  2  0  0  0
 19 40  1  0  0  0
 20 21  1  0  0  0
 20 41  1  0  0  0
 21 22  2  0  0  0
 21 42  1  0  0  0
 22 23  1  0  0  0
 23 24  1  0  0  0
 23 25  1  0  0  0
 23 26  1  0  0  0
M  CHG  1  10   1
M  END
> <chembl_id>
CHEMBL3093932

> <chembl_pref_name>
None

> <i_m_ct_stereo_status>
1

> <s_m_source_file>
sdf/inactives_sanitized.sdf

> <i_m_source_file_index>
321

> <i_lp_mmshare_version>
49012

> <i_f3d_flags>
0

> <s_epik_input>
W0NIMl0xW0NIMl1DMShDI04pW05IXUMoPU8pW0NAQEhdKFtOSF1bQ0gyXTIpW0NIMl1bQ0BIXTJTKD1PKSg9TyljM1tjSF1bY0hdW2NIXVtjSF1jM0MoRikoRilG

> <s_epik_cmdline>
J2VwaWtfcHl0aG9uJywgJy1waHQnLCAnMC41JywgJy1waCcsICc3LjUnLCAnLW50JywgJy1tYScsICcyMDAnLCAnLWltYWUnLCAnPGluZmlsZS5tYWU+JywgJy1vbWFlJywgJzxvdXRmaWxlLm1hZT4n

> <r_epik_Ionization_Penalty>
  0.1735

> <r_epik_Ionization_Penalty_Charging>
  0.1732

> <r_epik_Ionization_Penalty_Neutral>
  0.0003

> <r_epik_State_Penalty>
  0.1626

> <r_epik_Charging_Adjusted_Penalty>
0.33575933824096

> <i_epik_Tot_Q>
1

> <i_epik_Tot_abs_Q>
1

> <s_lp_Force_Field>
OPLS3e

> <r_lp_Energy>
31.499882

> <b_lp_Chiralities_Consistent>
1

> <s_lp_Variant>
sdf/inactives_sanitized.sdf:321-1

$$$$
sdf/inactives_sanitized.sdf:322
                    3D
 Schrodinger Suite 2020-1.
 32 32  0  0  1  0            999 V2000
   -0.5475    1.2462    0.0419 C   0  0  0  0  0  0
    3.6656   -2.6391    1.4820 C   0  0  0  0  0  0
    3.1076   -1.7062    0.6894 N   0  0  2  0  0  0
    4.1882   -3.4397    2.1340 N   0  0  0  0  0  0
    0.1908    0.0724    0.0412 N   0  0  0  0  0  0
   -1.8697    0.9259    0.0187 O   0  0  0  0  0  0
   -0.0923    2.3912    0.0567 O   0  0  0  0  0  0
    1.6560    0.0385    0.0537 C   0  0  1  0  0  0
    2.1861   -0.7374    1.2740 C   0  0  0  0  0  0
   -2.9571    1.8698   -0.0126 C   0  0  0  0  0  0
    2.1913   -0.7246   -1.1586 C   0  0  0  0  0  0
    2.5616   -2.0960   -0.6015 C   0  0  0  0  0  0
   -2.9108    2.7416   -1.2920 C   0  0  0  0  0  0
   -2.9757    2.7533    1.2594 C   0  0  0  0  0  0
   -4.2256    0.9924   -0.0414 C   0  0  0  0  0  0
   -0.3066   -0.8060    0.0281 H   0  0  0  0  0  0
    2.0801    1.0454    0.0285 H   0  0  0  0  0  0
    1.3936   -1.2557    1.8176 H   0  0  0  0  0  0
    2.7006   -0.0791    1.9748 H   0  0  0  0  0  0
    1.5201   -0.7657   -2.0183 H   0  0  0  0  0  0
    3.1048   -0.2458   -1.5186 H   0  0  0  0  0  0
    1.6892   -2.7299   -0.4304 H   0  0  0  0  0  0
    3.3127   -2.6092   -1.2034 H   0  0  0  0  0  0
   -3.8096    3.3517   -1.3894 H   0  0  0  0  0  0
   -2.8355    2.1248   -2.1885 H   0  0  0  0  0  0
   -2.0595    3.4222   -1.2973 H   0  0  0  0  0  0
   -2.1177    3.4232    1.3098 H   0  0  0  0  0  0
   -2.9620    2.1446    2.1644 H   0  0  0  0  0  0
   -3.8705    3.3758    1.2968 H   0  0  0  0  0  0
   -5.1328    1.5975   -0.0694 H   0  0  0  0  0  0
   -4.2879    0.3498    0.8383 H   0  0  0  0  0  0
   -4.2407    0.3398   -0.9157 H   0  0  0  0  0  0
  1  5  1  0  0  0
  1  6  1  0  0  0
  1  7  2  0  0  0
  2  3  1  0  0  0
  2  4  3  0  0  0
  3  9  1  0  0  0
  3 12  1  0  0  0
  5  8  1  0  0  0
  5 16  1  0  0  0
  6 10  1  0  0  0
  8  9  1  0  0  0
  8 11  1  0  0  0
  8 17  1  0  0  0
  9 18  1  0  0  0
  9 19  1  0  0  0
 10 13  1  0  0  0
 10 14  1  0  0  0
 10 15  1  0  0  0
 11 12  1  0  0  0
 11 20  1  0  0  0
 11 21  1  0  0  0
 12 22  1  0  0  0
 12 23  1  0  0  0
 13 24  1  0  0  0
 13 25  1  0  0  0
 13 26  1  0  0  0
 14 27  1  0  0  0
 14 28  1  0  0  0
 14 29  1  0  0  0
 15 30  1  0  0  0
 15 31  1  0  0  0
 15 32  1  0  0  0
M  END
> <chembl_id>
CHEMBL2096698

> <chembl_pref_name>
None

> <i_m_ct_stereo_status>
1

> <s_m_source_file>
sdf/inactives_sanitized.sdf

> <i_m_source_file_index>
322

> <i_lp_mmshare_version>
49012

> <i_f3d_flags>
0

> <s_epik_input>
W0NIM11DKFtDSDNdKShbQ0gzXSlPQyg9TylbTkhdW0NASF0oW0NIMl1bQ0gyXTEpW0NIMl1OMUMjTg==

> <s_epik_cmdline>
J2VwaWtfcHl0aG9uJywgJy1waHQnLCAnMC41JywgJy1waCcsICc3LjUnLCAnLW50JywgJy1tYScsICcyMDAnLCAnLWltYWUnLCAnPGluZmlsZS5tYWU+JywgJy1vbWFlJywgJzxvdXRmaWxlLm1hZT4n

> <r_lp_tautomer_probability>
1

> <r_epik_Ionization_Penalty>
  0.0000

> <r_epik_Ionization_Penalty_Charging>
  0.0000

> <r_epik_Ionization_Penalty_Neutral>
  0.0000

> <r_epik_State_Penalty>
 -0.0000

> <r_epik_Charging_Adjusted_Penalty>
0

> <i_epik_Tot_Q>
0

> <i_epik_Tot_abs_Q>
0

> <s_epik_Chemistry_Notes>
This compound has an ester and may undergo hydrolysis at high or low pH.

> <s_lp_Force_Field>
OPLS3e

> <r_lp_Energy>
8.731512

> <b_lp_Chiralities_Consistent>
1

> <s_lp_Variant>
sdf/inactives_sanitized.sdf:322-1

$$$$
sdf/inactives_sanitized.sdf:323
                    3D
 Schrodinger Suite 2020-1.
 61 62  0  0  1  0            999 V2000
   -0.6374   -0.2319   -2.5577 C   0  0  0  0  0  0
   -0.4244   -0.5419   -1.2634 N   0  0  0  0  0  0
    0.1939    0.3348   -0.2600 C   0  0  2  0  0  0
    1.7054    0.5445   -0.5061 C   0  0  0  0  0  0
   -1.2934   -1.3010   -3.4043 C   0  0  0  0  0  0
   -0.3494    0.8661   -3.0399 O   0  0  0  0  0  0
   -1.9405   -0.9486   -4.5992 C   0  0  0  0  0  0
    2.3915   -0.3643   -0.9786 O   0  0  0  0  0  0
   -0.0507   -0.2458    1.1592 C   0  0  0  0  0  0
    2.1980    1.7362   -0.1289 N   0  0  0  0  0  0
    4.7108    1.4176    3.4169 C   0  0  0  0  0  0
   -2.5579   -1.9177   -5.4093 C   0  0  0  0  0  0
    4.0846    1.9201    2.2637 N   0  0  0  0  0  0
    5.8751    0.5005    5.7998 C   0  0  0  0  0  0
    5.5883    0.3260    3.3979 C   0  0  0  0  0  0
    4.4227    2.0435    4.6302 C   0  0  0  0  0  0
    5.0010    1.5873    5.8111 C   0  0  0  0  0  0
    6.1669   -0.1289    4.5801 C   0  0  0  0  0  0
   -3.2165   -1.6459   -6.5931 O   0  0  0  0  0  0
    6.3985    0.1173    7.0198 O   0  0  0  0  0  0
   -1.2654   -2.6550   -3.0325 C   0  0  0  0  0  0
   -1.8727   -3.6230   -3.8294 C   0  0  0  0  0  0
   -1.5328   -0.3090    1.6007 C   0  0  0  0  0  0
    3.6116    2.1022   -0.1928 C   0  0  0  0  0  0
    4.4637    1.4721    0.9266 C   0  0  0  0  0  0
   -2.5149   -3.2536   -5.0086 C   0  0  0  0  0  0
    7.2977   -0.9848    7.0745 C   0  0  0  0  0  0
   -3.2951   -0.3001   -7.0502 C   0  0  0  0  0  0
   -2.1901    1.0870    1.6557 C   0  0  0  0  0  0
   -1.6816   -1.0772    2.9320 C   0  0  0  0  0  0
   -0.6892   -1.4581   -0.9336 H   0  0  0  0  0  0
   -0.2879    1.3119   -0.3344 H   0  0  0  0  0  0
   -1.9649    0.0902   -4.8940 H   0  0  0  0  0  0
    0.3817   -1.2475    1.2092 H   0  0  0  0  0  0
    0.4965    0.3411    1.9001 H   0  0  0  0  0  0
    1.5687    2.4268    0.2541 H   0  0  0  0  0  0
    3.6693    2.8377    2.3376 H   0  0  0  0  0  0
    5.8336   -0.1821    2.4777 H   0  0  0  0  0  0
    3.7467    2.8858    4.6662 H   0  0  0  0  0  0
    4.7669    2.0808    6.7430 H   0  0  0  0  0  0
    6.8381   -0.9726    4.5295 H   0  0  0  0  0  0
   -0.7696   -2.9759   -2.1276 H   0  0  0  0  0  0
   -1.8440   -4.6612   -3.5333 H   0  0  0  0  0  0
   -2.0739   -0.8905    0.8533 H   0  0  0  0  0  0
    4.0297    1.8571   -1.1711 H   0  0  0  0  0  0
    3.6611    3.1889   -0.1131 H   0  0  0  0  0  0
    5.5095    1.7436    0.7774 H   0  0  0  0  0  0
    4.4380    0.3837    0.8625 H   0  0  0  0  0  0
   -2.9829   -4.0129   -5.6182 H   0  0  0  0  0  0
    7.6029   -1.1494    8.1078 H   0  0  0  0  0  0
    8.1992   -0.7940    6.4906 H   0  0  0  0  0  0
    6.8281   -1.9032    6.7195 H   0  0  0  0  0  0
   -3.8491   -0.2704   -7.9882 H   0  0  0  0  0  0
   -2.3045    0.1167   -7.2387 H   0  0  0  0  0  0
   -3.8215    0.3351   -6.3361 H   0  0  0  0  0  0
   -2.8018    1.2312    2.5463 H   0  0  0  0  0  0
   -2.8435    1.2371    0.7958 H   0  0  0  0  0  0
   -1.4503    1.8879    1.6455 H   0  0  0  0  0  0
   -2.0103   -0.4396    3.7526 H   0  0  0  0  0  0
   -0.7435   -1.5341    3.2488 H   0  0  0  0  0  0
   -2.4112   -1.8816    2.8344 H   0  0  0  0  0  0
  1  2  1  0  0  0
  1  5  1  0  0  0
  1  6  2  0  0  0
  2  3  1  0  0  0
  2 31  1  0  0  0
  3  4  1  0  0  0
  3  9  1  0  0  0
  3 32  1  0  0  0
  4  8  2  0  0  0
  4 10  1  0  0  0
  5  7  2  0  0  0
  5 21  1  0  0  0
  7 12  1  0  0  0
  7 33  1  0  0  0
  9 23  1  0  0  0
  9 34  1  0  0  0
  9 35  1  0  0  0
 10 24  1  0  0  0
 10 36  1  0  0  0
 11 13  1  0  0  0
 11 15  1  0  0  0
 11 16  2  0  0  0
 12 19  1  0  0  0
 12 26  2  0  0  0
 13 25  1  0  0  0
 13 37  1  0  0  0
 14 17  2  0  0  0
 14 20  1  0  0  0
 14 18  1  0  0  0
 15 18  2  0  0  0
 15 38  1  0  0  0
 16 17  1  0  0  0
 16 39  1  0  0  0
 17 40  1  0  0  0
 18 41  1  0  0  0
 19 28  1  0  0  0
 20 27  1  0  0  0
 21 22  2  0  0  0
 21 42  1  0  0  0
 22 26  1  0  0  0
 22 43  1  0  0  0
 23 29  1  0  0  0
 23 30  1  0  0  0
 23 44  1  0  0  0
 24 25  1  0  0  0
 24 45  1  0  0  0
 24 46  1  0  0  0
 25 47  1  0  0  0
 25 48  1  0  0  0
 26 49  1  0  0  0
 27 50  1  0  0  0
 27 51  1  0  0  0
 27 52  1  0  0  0
 28 53  1  0  0  0
 28 54  1  0  0  0
 28 55  1  0  0  0
 29 56  1  0  0  0
 29 57  1  0  0  0
 29 58  1  0  0  0
 30 59  1  0  0  0
 30 60  1  0  0  0
 30 61  1  0  0  0
M  END
> <chembl_id>
CHEMBL61471

> <chembl_pref_name>
None

> <i_m_ct_stereo_status>
1

> <s_m_source_file>
sdf/inactives_sanitized.sdf

> <i_m_source_file_index>
323

> <i_lp_mmshare_version>
49012

> <i_f3d_flags>
0

> <s_epik_input>
W2NIXTFbY0hdW2NIXWMoT1tDSDNdKVtjSF1jMUMoPU8pW05IXVtDQEBIXShbQ0gyXVtDSF0oW0NIM10pW0NIM10pQyg9TylbTkhdW0NIMl1bQ0gyXVtOSF1jMltjSF1bY0hdYyhbY0hdW2NIXTIpT1tDSDNd

> <s_epik_cmdline>
J2VwaWtfcHl0aG9uJywgJy1waHQnLCAnMC41JywgJy1waCcsICc3LjUnLCAnLW50JywgJy1tYScsICcyMDAnLCAnLWltYWUnLCAnPGluZmlsZS5tYWU+JywgJy1vbWFlJywgJzxvdXRmaWxlLm1hZT4n

> <r_lp_tautomer_probability>
1

> <r_epik_Ionization_Penalty>
  0.0017

> <r_epik_Ionization_Penalty_Charging>
  0.0000

> <r_epik_Ionization_Penalty_Neutral>
  0.0017

> <r_epik_State_Penalty>
 -0.0000

> <r_epik_Charging_Adjusted_Penalty>
0

> <i_epik_Tot_Q>
0

> <i_epik_Tot_abs_Q>
0

> <s_lp_Force_Field>
OPLS3e

> <r_lp_Energy>
30.656859

> <b_lp_Chiralities_Consistent>
1

> <s_lp_Variant>
sdf/inactives_sanitized.sdf:323-1

$$$$
sdf/inactives_sanitized.sdf:324
                    3D
 Schrodinger Suite 2020-1.
 36 37  0  0  1  0            999 V2000
   -0.8603    1.5218    1.6857 C   0  0  0  0  0  0
   -0.8409    1.5205   -0.0817 S   0  0  0  0  0  0
   -0.0094   -0.0674   -0.4138 C   0  0  0  0  0  0
    1.5256   -0.0907   -0.1638 C   0  0  1  0  0  0
    2.1285   -1.5326   -0.0769 C   0  0  1  0  0  0
    3.6732   -1.5152    0.1037 C   0  0  0  0  0  0
    4.3550   -0.6818   -0.9989 C   0  0  0  0  0  0
    3.7855    0.7463   -1.0704 C   0  0  0  0  0  0
    2.2593    0.7261   -1.2586 C   0  0  0  0  0  0
    1.5214   -2.3135    1.1140 C   0  0  0  0  0  0
    1.7268   -1.9435    2.2717 O   0  0  0  0  0  0
    0.7583   -3.3803    0.8187 N   0  0  0  0  0  0
    0.0446   -4.1815    1.8096 C   0  0  0  0  0  0
   -1.0099   -3.4210    2.5046 C   0  0  0  0  0  0
   -1.8378   -2.8238    3.0497 N   0  0  0  0  0  0
   -1.3768    2.9345    2.5537 S   0  0  0  0  0  0
   -0.5178    0.5175    2.4582 N   0  0  0  0  0  0
   -0.6375    0.8037    3.7387 C   0  0  0  0  0  0
   -1.0940    2.0804    4.0397 C   0  0  0  0  0  0
   -0.5284   -0.8321    0.1629 H   0  0  0  0  0  0
   -0.2108   -0.3242   -1.4543 H   0  0  0  0  0  0
    1.7290    0.3977    0.7916 H   0  0  0  0  0  0
    1.8810   -2.0874   -0.9848 H   0  0  0  0  0  0
    3.9558   -1.0303    1.0411 H   0  0  0  0  0  0
    4.0918   -2.5213    0.0397 H   0  0  0  0  0  0
    5.4306   -0.6410   -0.8215 H   0  0  0  0  0  0
    4.2259   -1.1753   -1.9636 H   0  0  0  0  0  0
    4.0355    1.2893   -0.1575 H   0  0  0  0  0  0
    4.2541    1.2928   -1.8896 H   0  0  0  0  0  0
    2.0242    0.3105   -2.2401 H   0  0  0  0  0  0
    1.8748    1.7463   -1.2897 H   0  0  0  0  0  0
    0.5853   -3.6021   -0.1507 H   0  0  0  0  0  0
   -0.4256   -5.0280    1.3094 H   0  0  0  0  0  0
    0.7349   -4.5882    2.5505 H   0  0  0  0  0  0
   -0.3824    0.0484    4.4674 H   0  0  0  0  0  0
   -1.2699    2.5348    5.0035 H   0  0  0  0  0  0
  1  2  1  0  0  0
  1 16  1  0  0  0
  1 17  2  0  0  0
  2  3  1  0  0  0
  3  4  1  0  0  0
  3 20  1  0  0  0
  3 21  1  0  0  0
  4  5  1  0  0  0
  4  9  1  0  0  0
  4 22  1  0  0  0
  5 10  1  0  0  0
  5  6  1  0  0  0
  5 23  1  0  0  0
  6  7  1  0  0  0
  6 24  1  0  0  0
  6 25  1  0  0  0
  7  8  1  0  0  0
  7 26  1  0  0  0
  7 27  1  0  0  0
  8  9  1  0  0  0
  8 28  1  0  0  0
  8 29  1  0  0  0
  9 30  1  0  0  0
  9 31  1  0  0  0
 10 11  2  0  0  0
 10 12  1  0  0  0
 12 13  1  0  0  0
 12 32  1  0  0  0
 13 14  1  0  0  0
 13 33  1  0  0  0
 13 34  1  0  0  0
 14 15  3  0  0  0
 16 19  1  0  0  0
 17 18  1  0  0  0
 18 19  2  0  0  0
 18 35  1  0  0  0
 19 36  1  0  0  0
M  END
> <chembl_id>
CHEMBL383447

> <chembl_pref_name>
None

> <i_m_ct_stereo_status>
1

> <s_m_source_file>
sdf/inactives_sanitized.sdf

> <i_m_source_file_index>
324

> <i_lp_mmshare_version>
49012

> <i_f3d_flags>
0

> <s_epik_input>
bjFbY0hdW2NIXXNjMVNbQ0gyXVtDQEhdMltDQEBIXShbQ0gyXVtDSDJdW0NIMl1bQ0gyXTIpQyg9TylbTkhdW0NIMl1DI04=

> <s_epik_cmdline>
J2VwaWtfcHl0aG9uJywgJy1waHQnLCAnMC41JywgJy1waCcsICc3LjUnLCAnLW50JywgJy1tYScsICcyMDAnLCAnLWltYWUnLCAnPGluZmlsZS5tYWU+JywgJy1vbWFlJywgJzxvdXRmaWxlLm1hZT4n

> <r_lp_tautomer_probability>
1

> <r_epik_Ionization_Penalty>
  0.0001

> <r_epik_Ionization_Penalty_Charging>
  0.0000

> <r_epik_Ionization_Penalty_Neutral>
  0.0001

> <r_epik_State_Penalty>
 -0.0000

> <r_epik_Charging_Adjusted_Penalty>
0

> <i_epik_Tot_Q>
0

> <i_epik_Tot_abs_Q>
0

> <s_lp_Force_Field>
OPLS3e

> <r_lp_Energy>
12.141271

> <b_lp_Chiralities_Consistent>
1

> <s_lp_Variant>
sdf/inactives_sanitized.sdf:324-1

$$$$
sdf/inactives_sanitized.sdf:325
                    3D
 Schrodinger Suite 2020-1.
 23 23  0  0  1  0            999 V2000
    0.0095   -0.0255    0.0165 C   0  0  0  0  0  0
   -0.5220    1.4121   -0.0157 C   0  0  0  0  0  0
   -0.7106    1.7698   -1.4875 C   0  0  0  0  0  0
   -0.6098    0.6055   -2.1543 N   0  0  0  0  0  0
   -0.5302   -0.6014   -1.3276 C   0  0  1  0  0  0
   -0.9161    2.8900   -1.9476 O   0  0  0  0  0  0
    0.3872   -1.5694   -1.9648 C   0  0  0  0  0  0
    1.1043   -2.3286   -2.4648 N   0  0  0  0  0  0
   -1.9366   -1.2426   -1.2326 C   0  0  0  0  0  0
    1.5677    0.0296    0.0288 C   0  0  0  0  0  0
   -0.4119   -0.7688    1.3076 C   0  0  0  0  0  0
   -1.5109    1.4626    0.4430 H   0  0  0  0  0  0
    0.0909    2.1234    0.5401 H   0  0  0  0  0  0
   -0.8266    0.5435   -3.1383 H   0  0  0  0  0  0
   -1.9158   -2.1607   -0.6447 H   0  0  0  0  0  0
   -2.3206   -1.5044   -2.2196 H   0  0  0  0  0  0
   -2.6617   -0.5715   -0.7699 H   0  0  0  0  0  0
    2.0062   -0.9683    0.0699 H   0  0  0  0  0  0
    1.9456    0.5757    0.8944 H   0  0  0  0  0  0
    1.9673    0.5217   -0.8591 H   0  0  0  0  0  0
   -0.0802   -1.8078    1.2904 H   0  0  0  0  0  0
   -1.4941   -0.7749    1.4390 H   0  0  0  0  0  0
    0.0118   -0.3014    2.1977 H   0  0  0  0  0  0
  1  2  1  0  0  0
  1  5  1  0  0  0
  1 10  1  0  0  0
  1 11  1  0  0  0
  2  3  1  0  0  0
  2 12  1  0  0  0
  2 13  1  0  0  0
  3  4  1  0  0  0
  3  6  2  0  0  0
  4  5  1  0  0  0
  4 14  1  0  0  0
  5  7  1  0  0  0
  5  9  1  0  0  0
  7  8  3  0  0  0
  9 15  1  0  0  0
  9 16  1  0  0  0
  9 17  1  0  0  0
 10 18  1  0  0  0
 10 19  1  0  0  0
 10 20  1  0  0  0
 11 21  1  0  0  0
 11 22  1  0  0  0
 11 23  1  0  0  0
M  END
> <chembl_id>
CHEMBL2316307

> <chembl_pref_name>
None

> <s_m_source_file>
sdf/inactives_sanitized.sdf

> <i_m_source_file_index>
325

> <i_lp_mmshare_version>
49012

> <i_m_ct_stereo_status>
1

> <i_f3d_flags>
0

> <s_epik_input>
W0NIM11DMShbQ0gzXSlbQ0gyXUMoPU8pW05IXVtDQF0xKEMjTilbQ0gzXQ==

> <s_epik_cmdline>
J2VwaWtfcHl0aG9uJywgJy1waHQnLCAnMC41JywgJy1waCcsICc3LjUnLCAnLW50JywgJy1tYScsICcyMDAnLCAnLWltYWUnLCAnPGluZmlsZS5tYWU+JywgJy1vbWFlJywgJzxvdXRmaWxlLm1hZT4n

> <r_lp_tautomer_probability>
1

> <r_epik_Ionization_Penalty>
  0.0000

> <r_epik_Ionization_Penalty_Charging>
  0.0000

> <r_epik_Ionization_Penalty_Neutral>
  0.0000

> <r_epik_State_Penalty>
 -0.0000

> <r_epik_Charging_Adjusted_Penalty>
0

> <i_epik_Tot_Q>
0

> <i_epik_Tot_abs_Q>
0

> <s_lp_Force_Field>
OPLS3e

> <r_lp_Energy>
-3.491393

> <b_lp_Chiralities_Consistent>
1

> <s_lp_Variant>
sdf/inactives_sanitized.sdf:325-1

$$$$
sdf/inactives_sanitized.sdf:326
                    3D
 Schrodinger Suite 2020-1.
 73 77  0  0  1  0            999 V2000
    0.7821   -2.3387   -9.2193 N   0  0  0  0  0  0
   -0.0893   -3.2672   -9.6979 C   0  0  0  0  0  0
   -1.1793   -2.8225  -10.6777 C   0  0  0  0  0  0
   -0.0291   -4.4638   -9.4083 O   0  0  0  0  0  0
   -3.2554    1.7673    0.4158 N   0  0  0  0  0  0
   -4.4402    1.1239    0.5970 C   0  0  0  0  0  0
   -4.6573   -0.2129    0.6995 N   0  0  0  0  0  0
   -3.5633   -1.0141    0.6160 C   0  0  0  0  0  0
   -2.2033    0.9369    0.3353 C   0  0  0  0  0  0
   -2.2784   -0.4771    0.4317 C   0  0  0  0  0  0
   -0.9471   -0.9704    0.3139 C   0  0  0  0  0  0
   -0.1029    0.1180    0.1407 C   0  0  0  0  0  0
   -0.8710    1.2783    0.1491 N   0  0  0  0  0  0
    1.4163    0.1383    0.0042 C   0  0  0  0  0  0
    1.8926   -1.0120   -0.6969 O   0  0  0  0  0  0
   -5.6158    1.9724    0.6933 C   0  0  0  0  0  0
   -6.5520    2.6488    0.7699 N   0  0  0  0  0  0
   -0.3704    2.6497    0.0287 C   0  0  0  0  0  0
    0.1336    3.1685    1.3917 C   0  0  0  0  0  0
    0.7282    4.5958    1.3517 C   0  0  0  0  0  0
    1.6186   -1.1695   -2.0439 C   0  0  0  0  0  0
    1.0392   -0.1835   -2.8547 C   0  0  0  0  0  0
    0.7995   -0.4358   -4.2023 C   0  0  0  0  0  0
    1.1345   -1.6690   -4.7789 C   0  0  0  0  0  0
    1.7191   -2.6462   -3.9579 C   0  0  0  0  0  0
    1.9586   -2.3961   -2.6099 C   0  0  0  0  0  0
    0.8720   -1.8916   -6.1468 N   0  0  0  0  0  0
    1.4072    4.9511    2.6955 C   0  0  0  0  0  0
    2.0859    6.3347    2.6385 C   0  0  0  0  0  0
    1.0876    7.4391    2.2296 C   0  0  0  0  0  0
    0.3086    7.0835    0.9449 C   0  0  0  0  0  0
   -0.3297    5.6820    1.0345 C   0  0  0  0  0  0
    1.5770   -2.9679   -6.8658 C   0  0  0  0  0  0
    1.9033   -2.7586   -8.3652 C   0  0  0  0  0  0
   -0.4942   -1.6312   -6.6267 C   0  0  0  0  0  0
   -0.6181   -0.7044   -7.8542 C   0  0  0  0  0  0
    0.3836   -0.9413   -9.0027 C   0  0  0  0  0  0
   -2.0106   -2.3646  -10.1420 H   0  0  0  0  0  0
   -1.5663   -3.6783  -11.2321 H   0  0  0  0  0  0
   -0.7899   -2.1086  -11.4039 H   0  0  0  0  0  0
   -3.7247   -2.0786    0.7017 H   0  0  0  0  0  0
   -0.6226   -2.0000    0.3518 H   0  0  0  0  0  0
    1.8413    1.0378   -0.4406 H   0  0  0  0  0  0
    1.8530    0.0972    1.0020 H   0  0  0  0  0  0
   -1.1720    3.2796   -0.3571 H   0  0  0  0  0  0
    0.4129    2.6857   -0.7280 H   0  0  0  0  0  0
   -0.6798    3.1347    2.1191 H   0  0  0  0  0  0
    0.8963    2.4828    1.7648 H   0  0  0  0  0  0
    1.4950    4.6327    0.5751 H   0  0  0  0  0  0
    0.7699    0.7834   -2.4586 H   0  0  0  0  0  0
    0.3594    0.3469   -4.8033 H   0  0  0  0  0  0
    1.9792   -3.6205   -4.3437 H   0  0  0  0  0  0
    2.4043   -3.1664   -1.9977 H   0  0  0  0  0  0
    0.6790    4.9106    3.5076 H   0  0  0  0  0  0
    2.1472    4.1906    2.9493 H   0  0  0  0  0  0
    2.5269    6.5734    3.6070 H   0  0  0  0  0  0
    2.9114    6.3070    1.9257 H   0  0  0  0  0  0
    0.3792    7.5997    3.0438 H   0  0  0  0  0  0
    1.6138    8.3852    2.0958 H   0  0  0  0  0  0
   -0.4624    7.8323    0.7595 H   0  0  0  0  0  0
    0.9829    7.1220    0.0879 H   0  0  0  0  0  0
   -0.8408    5.4584    0.0986 H   0  0  0  0  0  0
   -1.1178    5.6670    1.7894 H   0  0  0  0  0  0
    2.5287   -3.1727   -6.3758 H   0  0  0  0  0  0
    0.9639   -3.8662   -6.7766 H   0  0  0  0  0  0
    2.6933   -2.0144   -8.4729 H   0  0  0  0  0  0
    2.3373   -3.6813   -8.7547 H   0  0  0  0  0  0
   -1.0395   -2.5673   -6.7565 H   0  0  0  0  0  0
   -1.0413   -1.0958   -5.8501 H   0  0  0  0  0  0
   -1.6257   -0.8379   -8.2491 H   0  0  0  0  0  0
   -0.5993    0.3432   -7.5513 H   0  0  0  0  0  0
    1.2646   -0.2995   -8.9620 H   0  0  0  0  0  0
   -0.1098   -0.5929   -9.9101 H   0  0  0  0  0  0
  1  2  1  0  0  0
  1 34  1  0  0  0
  1 37  1  0  0  0
  2  3  1  0  0  0
  2  4  2  0  0  0
  3 38  1  0  0  0
  3 39  1  0  0  0
  3 40  1  0  0  0
  5  9  2  0  0  0
  5  6  1  0  0  0
  6  7  2  0  0  0
  6 16  1  0  0  0
  7  8  1  0  0  0
  8 10  2  0  0  0
  8 41  1  0  0  0
  9 13  1  0  0  0
  9 10  1  0  0  0
 10 11  1  0  0  0
 11 12  2  0  0  0
 11 42  1  0  0  0
 12 13  1  0  0  0
 12 14  1  0  0  0
 13 18  1  0  0  0
 14 15  1  0  0  0
 14 43  1  0  0  0
 14 44  1  0  0  0
 15 21  1  0  0  0
 16 17  3  0  0  0
 18 19  1  0  0  0
 18 45  1  0  0  0
 18 46  1  0  0  0
 19 20  1  0  0  0
 19 47  1  0  0  0
 19 48  1  0  0  0
 20 28  1  0  0  0
 20 32  1  0  0  0
 20 49  1  0  0  0
 21 22  2  0  0  0
 21 26  1  0  0  0
 22 23  1  0  0  0
 22 50  1  0  0  0
 23 24  2  0  0  0
 23 51  1  0  0  0
 24 25  1  0  0  0
 24 27  1  0  0  0
 25 26  2  0  0  0
 25 52  1  0  0  0
 26 53  1  0  0  0
 27 33  1  0  0  0
 27 35  1  0  0  0
 28 29  1  0  0  0
 28 54  1  0  0  0
 28 55  1  0  0  0
 29 30  1  0  0  0
 29 56  1  0  0  0
 29 57  1  0  0  0
 30 31  1  0  0  0
 30 58  1  0  0  0
 30 59  1  0  0  0
 31 32  1  0  0  0
 31 60  1  0  0  0
 31 61  1  0  0  0
 32 62  1  0  0  0
 32 63  1  0  0  0
 33 34  1  0  0  0
 33 64  1  0  0  0
 33 65  1  0  0  0
 34 66  1  0  0  0
 34 67  1  0  0  0
 35 36  1  0  0  0
 35 68  1  0  0  0
 35 69  1  0  0  0
 36 37  1  0  0  0
 36 70  1  0  0  0
 36 71  1  0  0  0
 37 72  1  0  0  0
 37 73  1  0  0  0
M  END
> <chembl_id>
CHEMBL462277

> <chembl_pref_name>
None

> <s_m_source_file>
sdf/inactives_sanitized.sdf

> <i_m_source_file_index>
326

> <i_lp_mmshare_version>
49012

> <i_m_ct_stereo_status>
1

> <i_f3d_flags>
0

> <s_epik_input>
W0NIM11DKD1PKU4xW0NIMl1bQ0gyXU4oW0NIMl1bQ0gyXVtDSDJdMSljKFtjSF1bY0hdMilbY0hdW2NIXWMyT1tDSDJdYyhbY0hdYyhjMzQpW2NIXW5jKG4zKUMjTiluNFtDSDJdW0NIMl1bQ0hdNVtDSDJdW0NIMl1bQ0gyXVtDSDJdW0NIMl01

> <s_epik_cmdline>
J2VwaWtfcHl0aG9uJywgJy1waHQnLCAnMC41JywgJy1waCcsICc3LjUnLCAnLW50JywgJy1tYScsICcyMDAnLCAnLWltYWUnLCAnPGluZmlsZS5tYWU+JywgJy1vbWFlJywgJzxvdXRmaWxlLm1hZT4n

> <r_lp_tautomer_probability>
1

> <r_epik_Ionization_Penalty>
  0.0023

> <r_epik_Ionization_Penalty_Charging>
  0.0000

> <r_epik_Ionization_Penalty_Neutral>
  0.0023

> <r_epik_State_Penalty>
 -0.0000

> <r_epik_Charging_Adjusted_Penalty>
0

> <i_epik_Tot_Q>
0

> <i_epik_Tot_abs_Q>
0

> <s_lp_Force_Field>
OPLS3e

> <r_lp_Energy>
54.913613

> <b_lp_Chiralities_Consistent>
1

> <s_lp_Variant>
sdf/inactives_sanitized.sdf:326-1

$$$$
sdf/inactives_sanitized.sdf:327
                    3D
 Schrodinger Suite 2020-1.
 71 72  0  0  1  0            999 V2000
    1.1752    5.4404   -6.7800 C   0  0  0  0  0  0
    1.9508    4.6605   -7.6370 C   0  0  0  0  0  0
    2.3861    3.3986   -7.2329 C   0  0  0  0  0  0
    2.0387    2.9170   -5.9737 C   0  0  0  0  0  0
    1.2565    3.6855   -5.1000 C   0  0  0  0  0  0
    0.8324    4.9537   -5.5218 C   0  0  0  0  0  0
    0.8796    3.1642   -3.7503 C   0  0  0  0  0  0
    0.6215    1.8009   -3.5541 C   0  0  0  0  0  0
    0.2592    1.3162   -2.3008 C   0  0  0  0  0  0
    0.1499    2.1888   -1.2120 C   0  0  0  0  0  0
    0.4112    3.5473   -1.3971 C   0  0  0  0  0  0
    0.7707    4.0285   -2.6526 C   0  0  0  0  0  0
    2.3967    5.2856   -9.2552 S   0  0  0  0  0  0
    4.0170    6.1939   -8.9327 C   0  0  0  0  0  0
    2.6740    4.1292  -10.1148 O   0  0  0  0  0  0
    1.3804    6.2696   -9.6446 O   0  0  0  0  0  0
   -0.2424    1.6916    0.1885 C   0  0  2  0  0  0
    0.2566    0.3435    0.4824 N   0  0  1  0  0  0
   -1.7759    1.7341    0.4097 C   0  0  0  0  0  0
   -2.1036    1.3496    1.6450 F   0  0  0  0  0  0
   -2.2531    2.9696    0.2519 F   0  0  0  0  0  0
   -2.4313    0.9424   -0.4419 F   0  0  0  0  0  0
    1.7257    0.2106    0.6141 C   0  0  2  0  0  0
    2.0583   -1.2236    0.1539 C   0  0  0  0  0  0
    2.2103    0.5158    2.0595 C   0  0  0  0  0  0
    3.7197    0.2985    2.3383 C   0  0  0  0  0  0
    4.0480    0.5512    3.8253 C   0  0  0  0  0  0
    4.6227    1.1207    1.3943 C   0  0  0  0  0  0
    1.7222   -2.1862    0.8476 O   0  0  0  0  0  0
    2.7166   -1.3282   -1.0143 N   0  0  0  0  0  0
    3.2072   -2.5798   -1.5970 C   0  0  2  0  0  0
    4.3877   -3.1484   -0.7764 C   0  0  0  0  0  0
    4.3046   -4.4301   -0.4096 N   0  0  0  0  0  0
    5.3566   -2.4377   -0.5098 O   0  0  0  0  0  0
    3.5987   -2.3749   -3.0811 C   0  0  0  0  0  0
    3.3167   -3.9153   -4.1407 S   0  0  0  0  0  0
    3.8430   -3.3698   -5.8656 C   0  0  0  0  0  0
    4.2467   -4.9571   -3.6935 O   0  0  0  0  0  0
    1.8762   -4.1877   -4.1726 O   0  0  0  0  0  0
    0.8351    6.4197   -7.0833 H   0  0  0  0  0  0
    2.9930    2.7900   -7.8873 H   0  0  0  0  0  0
    2.3930    1.9402   -5.6786 H   0  0  0  0  0  0
    0.2202    5.5700   -4.8797 H   0  0  0  0  0  0
    0.6841    1.1051   -4.3780 H   0  0  0  0  0  0
    0.0566    0.2615   -2.1831 H   0  0  0  0  0  0
    0.3352    4.2352   -0.5674 H   0  0  0  0  0  0
    0.9722    5.0841   -2.7621 H   0  0  0  0  0  0
    4.3765    6.6146   -9.8713 H   0  0  0  0  0  0
    4.7468    5.4880   -8.5375 H   0  0  0  0  0  0
    3.8395    6.9911   -8.2115 H   0  0  0  0  0  0
    0.2114    2.3604    0.9221 H   0  0  0  0  0  0
   -0.2487   -0.0748    1.2512 H   0  0  0  0  0  0
    2.2290    0.9138   -0.0525 H   0  0  0  0  0  0
    1.9705    1.5541    2.2938 H   0  0  0  0  0  0
    1.6237   -0.0747    2.7661 H   0  0  0  0  0  0
    3.9425   -0.7540    2.1580 H   0  0  0  0  0  0
    4.6769    1.4290    3.9735 H   0  0  0  0  0  0
    4.5742   -0.3015    4.2554 H   0  0  0  0  0  0
    3.1488    0.7057    4.4221 H   0  0  0  0  0  0
    4.0837    1.9462    0.9288 H   0  0  0  0  0  0
    5.0125    0.4911    0.5936 H   0  0  0  0  0  0
    5.4840    1.5496    1.9065 H   0  0  0  0  0  0
    2.9482   -0.4870   -1.5219 H   0  0  0  0  0  0
    2.3679   -3.2788   -1.5644 H   0  0  0  0  0  0
    3.4966   -4.9822   -0.6577 H   0  0  0  0  0  0
    5.0524   -4.8542    0.1195 H   0  0  0  0  0  0
    3.0030   -1.5833   -3.5373 H   0  0  0  0  0  0
    4.6409   -2.0748   -3.2023 H   0  0  0  0  0  0
    3.7158   -4.2053   -6.5534 H   0  0  0  0  0  0
    4.8889   -3.0662   -5.8366 H   0  0  0  0  0  0
    3.2201   -2.5318   -6.1767 H   0  0  0  0  0  0
  1  6  2  0  0  0
  1  2  1  0  0  0
  1 40  1  0  0  0
  2  3  2  0  0  0
  2 13  1  0  0  0
  3  4  1  0  0  0
  3 41  1  0  0  0
  4  5  2  0  0  0
  4 42  1  0  0  0
  5  6  1  0  0  0
  5  7  1  0  0  0
  6 43  1  0  0  0
  7 12  1  0  0  0
  7  8  2  0  0  0
  8  9  1  0  0  0
  8 44  1  0  0  0
  9 10  2  0  0  0
  9 45  1  0  0  0
 10 11  1  0  0  0
 10 17  1  0  0  0
 11 12  2  0  0  0
 11 46  1  0  0  0
 12 47  1  0  0  0
 13 14  1  0  0  0
 13 15  2  0  0  0
 13 16  2  0  0  0
 14 48  1  0  0  0
 14 49  1  0  0  0
 14 50  1  0  0  0
 17 19  1  0  0  0
 17 18  1  0  0  0
 17 51  1  0  0  0
 18 23  1  0  0  0
 18 52  1  0  0  0
 19 20  1  0  0  0
 19 21  1  0  0  0
 19 22  1  0  0  0
 23 24  1  0  0  0
 23 25  1  0  0  0
 23 53  1  0  0  0
 24 29  2  0  0  0
 24 30  1  0  0  0
 25 26  1  0  0  0
 25 54  1  0  0  0
 25 55  1  0  0  0
 26 27  1  0  0  0
 26 28  1  0  0  0
 26 56  1  0  0  0
 27 57  1  0  0  0
 27 58  1  0  0  0
 27 59  1  0  0  0
 28 60  1  0  0  0
 28 61  1  0  0  0
 28 62  1  0  0  0
 30 31  1  0  0  0
 30 63  1  0  0  0
 31 32  1  0  0  0
 31 35  1  0  0  0
 31 64  1  0  0  0
 32 33  1  0  0  0
 32 34  2  0  0  0
 33 65  1  0  0  0
 33 66  1  0  0  0
 35 36  1  0  0  0
 35 67  1  0  0  0
 35 68  1  0  0  0
 36 37  1  0  0  0
 36 38  2  0  0  0
 36 39  2  0  0  0
 37 69  1  0  0  0
 37 70  1  0  0  0
 37 71  1  0  0  0
M  END
> <chembl_id>
CHEMBL250089

> <chembl_pref_name>
None

> <i_m_ct_stereo_status>
1

> <s_m_source_file>
sdf/inactives_sanitized.sdf

> <i_m_source_file_index>
327

> <i_lp_mmshare_version>
49012

> <i_f3d_flags>
0

> <s_epik_input>
W0NIM11TKD1PKSg9TyljMVtjSF1bY0hdYyhbY0hdW2NIXTEpLWMyW2NIXVtjSF1jKFtjSF1bY0hdMilbQ0BASF0oQyhGKShGKUYpW05IXVtDQEBIXShbQ0gyXVtDSF0oW0NIM10pW0NIM10pQyg9TylbTkhdW0NASF0oQyg9TylbTkgyXSlbQ0gyXVMoPU8pKD1PKVtDSDNd

> <s_epik_cmdline>
J2VwaWtfcHl0aG9uJywgJy1waHQnLCAnMC41JywgJy1waCcsICc3LjUnLCAnLW50JywgJy1tYScsICcyMDAnLCAnLWltYWUnLCAnPGluZmlsZS5tYWU+JywgJy1vbWFlJywgJzxvdXRmaWxlLm1hZT4n

> <r_lp_tautomer_probability>
1

> <r_epik_Ionization_Penalty>
  0.0003

> <r_epik_Ionization_Penalty_Charging>
  0.0000

> <r_epik_Ionization_Penalty_Neutral>
  0.0003

> <r_epik_State_Penalty>
 -0.0000

> <r_epik_Charging_Adjusted_Penalty>
0

> <i_epik_Tot_Q>
0

> <i_epik_Tot_abs_Q>
0

> <s_lp_Force_Field>
OPLS3e

> <r_lp_Energy>
22.828763

> <b_lp_Chiralities_Consistent>
1

> <s_lp_Variant>
sdf/inactives_sanitized.sdf:327-1

$$$$
sdf/inactives_sanitized.sdf:328
                    3D
 Schrodinger Suite 2020-1.
 54 57  0  0  1  0            999 V2000
   -1.4777    8.7720   -2.8290 N   0  0  0  0  0  0
   -2.2576    8.9049   -1.7508 C   0  0  0  0  0  0
   -2.8596    9.9489   -1.5036 O   0  0  0  0  0  0
   -2.3390    7.7408   -0.8998 C   0  0  0  0  0  0
   -1.7570    6.4797   -1.0690 C   0  0  0  0  0  0
   -2.0416    5.5633   -0.0386 C   0  0  0  0  0  0
   -2.8623    6.1545    0.9209 C   0  0  0  0  0  0
   -3.2774    7.7971    0.5630 S   0  0  0  0  0  0
   -1.5371    4.1558    0.0201 C   0  0  0  0  0  0
   -1.3438    3.5185    1.2523 C   0  0  0  0  0  0
   -0.8669    2.2091    1.3085 C   0  0  0  0  0  0
   -0.5765    1.5123    0.1322 C   0  0  0  0  0  0
   -0.0418    0.0858    0.1998 C   0  0  0  0  0  0
    1.4507   -0.0305   -0.1763 C   0  0  2  0  0  0
    1.8887   -1.4286   -0.1492 N   0  0  0  0  0  0
    3.1289   -1.8726   -0.4295 C   0  0  0  0  0  0
    4.0381   -1.1078   -0.7618 O   0  0  0  0  0  0
    3.3462   -3.4068   -0.3101 C   0  0  2  0  0  0
    2.4500   -4.2272   -1.2822 C   0  0  0  0  0  0
    2.7825   -5.7433   -1.1703 C   0  0  0  0  0  0
    3.9390   -6.0019   -0.1620 C   0  0  2  0  0  0
    3.5242   -5.4373    1.2271 C   0  0  0  0  0  0
    3.1956   -3.9185    1.1512 C   0  0  0  0  0  0
    5.1731   -5.1890   -0.6482 C   0  0  0  0  0  0
    4.8180   -3.6814   -0.7240 N   0  3  0  0  0  0
    2.3015    0.8387    0.6633 C   0  0  0  0  0  0
    2.9668    1.5194    1.3214 N   0  0  0  0  0  0
   -0.7744    2.1398   -1.1025 C   0  0  0  0  0  0
   -0.5076    1.4831   -2.2553 F   0  0  0  0  0  0
   -1.2490    3.4506   -1.1553 C   0  0  0  0  0  0
   -1.3682    9.5438   -3.4705 H   0  0  0  0  0  0
   -0.9917    7.9055   -3.0065 H   0  0  0  0  0  0
   -1.1332    6.2292   -1.9147 H   0  0  0  0  0  0
   -3.2494    5.6986    1.8201 H   0  0  0  0  0  0
   -1.5514    4.0374    2.1769 H   0  0  0  0  0  0
   -0.7176    1.7420    2.2713 H   0  0  0  0  0  0
   -0.1995   -0.3175    1.2019 H   0  0  0  0  0  0
   -0.6470   -0.5366   -0.4618 H   0  0  0  0  0  0
    1.5758    0.3311   -1.1985 H   0  0  0  0  0  0
    1.1634   -2.1129    0.0095 H   0  0  0  0  0  0
    1.3938   -4.0694   -1.0558 H   0  0  0  0  0  0
    2.5894   -3.8923   -2.3122 H   0  0  0  0  0  0
    1.8943   -6.2959   -0.8592 H   0  0  0  0  0  0
    3.0459   -6.1423   -2.1512 H   0  0  0  0  0  0
    4.1722   -7.0657   -0.0983 H   0  0  0  0  0  0
    2.6597   -5.9862    1.6043 H   0  0  0  0  0  0
    4.3205   -5.6114    1.9527 H   0  0  0  0  0  0
    2.1799   -3.7480    1.5128 H   0  0  0  0  0  0
    3.8511   -3.3636    1.8259 H   0  0  0  0  0  0
    6.0229   -5.2592    0.0321 H   0  0  0  0  0  0
    5.4969   -5.4688   -1.6517 H   0  0  0  0  0  0
    5.4365   -3.1633   -0.1158 H   0  0  0  0  0  0
   -1.3965    3.9117   -2.1208 H   0  0  0  0  0  0
    4.9673   -3.3515   -1.6671 H   0  0  0  0  0  0
  1  2  1  0  0  0
  1 31  1  0  0  0
  1 32  1  0  0  0
  2  3  2  0  0  0
  2  4  1  0  0  0
  4  5  2  0  0  0
  4  8  1  0  0  0
  5  6  1  0  0  0
  5 33  1  0  0  0
  6  7  2  0  0  0
  6  9  1  0  0  0
  7  8  1  0  0  0
  7 34  1  0  0  0
  9 10  2  0  0  0
  9 30  1  0  0  0
 10 11  1  0  0  0
 10 35  1  0  0  0
 11 12  2  0  0  0
 11 36  1  0  0  0
 12 13  1  0  0  0
 12 28  1  0  0  0
 13 14  1  0  0  0
 13 37  1  0  0  0
 13 38  1  0  0  0
 14 15  1  0  0  0
 14 26  1  0  0  0
 14 39  1  0  0  0
 15 16  1  0  0  0
 15 40  1  0  0  0
 16 17  2  0  0  0
 16 18  1  0  0  0
 18 19  1  0  0  0
 18 23  1  0  0  0
 18 25  1  0  0  0
 19 20  1  0  0  0
 19 41  1  0  0  0
 19 42  1  0  0  0
 20 21  1  0  0  0
 20 43  1  0  0  0
 20 44  1  0  0  0
 21 22  1  0  0  0
 21 24  1  0  0  0
 21 45  1  0  0  0
 22 23  1  0  0  0
 22 46  1  0  0  0
 22 47  1  0  0  0
 23 48  1  0  0  0
 23 49  1  0  0  0
 24 25  1  0  0  0
 24 50  1  0  0  0
 24 51  1  0  0  0
 25 52  1  0  0  0
 25 54  1  0  0  0
 26 27  3  0  0  0
 28 29  1  0  0  0
 28 30  2  0  0  0
 30 53  1  0  0  0
M  CHG  1  25   1
M  END
> <chembl_id>
CHEMBL3702595

> <chembl_pref_name>
None

> <i_m_ct_stereo_status>
1

> <s_m_source_file>
sdf/inactives_sanitized.sdf

> <i_m_source_file_index>
328

> <i_lp_mmshare_version>
49012

> <i_f3d_flags>
0

> <s_epik_input>
W05IMl1DKD1PKWMxW2NIXWMoW2NIXXMxKS1jMltjSF1bY0hdYyhjKEYpW2NIXTIpW0NIMl1bQ0BASF0oQyNOKVtOSF1DKD1PKVtDQF0zNFtDSDJdW0NIMl1bQ0BIXShbQ0gyXVtDSDJdMylbQ0gyXVtOSF00

> <s_epik_cmdline>
J2VwaWtfcHl0aG9uJywgJy1waHQnLCAnMC41JywgJy1waCcsICc3LjUnLCAnLW50JywgJy1tYScsICcyMDAnLCAnLWltYWUnLCAnPGluZmlsZS5tYWU+JywgJy1vbWFlJywgJzxvdXRmaWxlLm1hZT4n

> <r_epik_Ionization_Penalty>
  0.2492

> <r_epik_Ionization_Penalty_Charging>
  0.2491

> <r_epik_Ionization_Penalty_Neutral>
  0.0001

> <r_epik_State_Penalty>
  0.2404

> <r_epik_Charging_Adjusted_Penalty>
0.489493738808436

> <i_epik_Tot_Q>
1

> <i_epik_Tot_abs_Q>
1

> <s_lp_Force_Field>
OPLS3e

> <r_lp_Energy>
44.083374

> <b_lp_Chiralities_Consistent>
1

> <s_lp_Variant>
sdf/inactives_sanitized.sdf:328-1

$$$$
sdf/inactives_sanitized.sdf:328
                    3D
 Schrodinger Suite 2020-1.
 53 56  0  0  1  0            999 V2000
   -4.8293    7.5492   -2.4310 N   0  0  0  0  0  0
   -4.1197    8.1805   -1.4897 C   0  0  0  0  0  0
   -4.2356    9.3876   -1.2822 O   0  0  0  0  0  0
   -3.2132    7.3461   -0.7365 C   0  0  0  0  0  0
   -2.9254    5.9863   -0.8950 C   0  0  0  0  0  0
   -1.9732    5.4816    0.0116 C   0  0  0  0  0  0
   -1.5405    6.4931    0.8683 C   0  0  0  0  0  0
   -2.2790    8.0286    0.5612 S   0  0  0  0  0  0
   -1.4865    4.0663    0.0481 C   0  0  0  0  0  0
   -0.9852    3.5126    1.2334 C   0  0  0  0  0  0
   -0.5145    2.2001    1.2622 C   0  0  0  0  0  0
   -0.5342    1.4178    0.1051 C   0  0  0  0  0  0
    0.0221   -0.0022    0.1444 C   0  0  0  0  0  0
    1.5657   -0.0648    0.0436 C   0  0  2  0  0  0
    2.1203    0.6342   -1.1208 N   0  0  0  0  0  0
    2.0221    0.2509   -2.4108 C   0  0  0  0  0  0
    1.4098   -0.7660   -2.7417 O   0  0  0  0  0  0
    2.6647    1.1593   -3.4998 C   0  0  2  0  0  0
    1.6471    2.2720   -3.9070 C   0  0  0  0  0  0
    2.2765    3.2168   -4.9695 C   0  0  0  0  0  0
    3.7317    2.7790   -5.2885 C   0  0  2  0  0  0
    3.7195    1.3187   -5.8223 C   0  0  0  0  0  0
    3.0813    0.3598   -4.7759 C   0  0  0  0  0  0
    4.4908    2.7537   -3.9279 C   0  0  0  0  0  0
    3.8838    1.8105   -2.9658 N   0  0  2  0  0  0
    2.0683   -1.4481    0.1499 C   0  0  0  0  0  0
    2.4630   -2.5328    0.2345 N   0  0  0  0  0  0
   -1.0442    1.9598   -1.0805 C   0  0  0  0  0  0
   -1.0818    1.2233   -2.2148 F   0  0  0  0  0  0
   -1.5141    3.2725   -1.1056 C   0  0  0  0  0  0
   -5.4863    8.0647   -2.9981 H   0  0  0  0  0  0
   -4.7181    6.5567   -2.5761 H   0  0  0  0  0  0
   -3.3956    5.3712   -1.6483 H   0  0  0  0  0  0
   -0.8118    6.4107    1.6611 H   0  0  0  0  0  0
   -0.9559    4.0950    2.1426 H   0  0  0  0  0  0
   -0.1249    1.7957    2.1851 H   0  0  0  0  0  0
   -0.3001   -0.4797    1.0713 H   0  0  0  0  0  0
   -0.4359   -0.5981   -0.6468 H   0  0  0  0  0  0
    1.9797    0.4465    0.9136 H   0  0  0  0  0  0
    2.6649    1.4604   -0.9202 H   0  0  0  0  0  0
    0.7342    1.8284   -4.3092 H   0  0  0  0  0  0
    1.3388    2.8561   -3.0371 H   0  0  0  0  0  0
    1.6770    3.2092   -5.8811 H   0  0  0  0  0  0
    2.2637    4.2476   -4.6120 H   0  0  0  0  0  0
    4.2067    3.4599   -5.9956 H   0  0  0  0  0  0
    3.1681    1.2697   -6.7624 H   0  0  0  0  0  0
    4.7360    0.9975   -6.0548 H   0  0  0  0  0  0
    2.2145   -0.1327   -5.2208 H   0  0  0  0  0  0
    3.7839   -0.4367   -4.5234 H   0  0  0  0  0  0
    5.5320    2.4689   -4.0833 H   0  0  0  0  0  0
    4.5047    3.7488   -3.4817 H   0  0  0  0  0  0
    4.5681    1.0904   -2.7815 H   0  0  0  0  0  0
   -1.8885    3.6702   -2.0373 H   0  0  0  0  0  0
  1  2  1  0  0  0
  1 31  1  0  0  0
  1 32  1  0  0  0
  2  3  2  0  0  0
  2  4  1  0  0  0
  4  5  2  0  0  0
  4  8  1  0  0  0
  5  6  1  0  0  0
  5 33  1  0  0  0
  6  7  2  0  0  0
  6  9  1  0  0  0
  7  8  1  0  0  0
  7 34  1  0  0  0
  9 10  2  0  0  0
  9 30  1  0  0  0
 10 11  1  0  0  0
 10 35  1  0  0  0
 11 12  2  0  0  0
 11 36  1  0  0  0
 12 13  1  0  0  0
 12 28  1  0  0  0
 13 14  1  0  0  0
 13 37  1  0  0  0
 13 38  1  0  0  0
 14 15  1  0  0  0
 14 26  1  0  0  0
 14 39  1  0  0  0
 15 16  1  0  0  0
 15 40  1  0  0  0
 16 17  2  0  0  0
 16 18  1  0  0  0
 18 19  1  0  0  0
 18 23  1  0  0  0
 18 25  1  0  0  0
 19 20  1  0  0  0
 19 41  1  0  0  0
 19 42  1  0  0  0
 20 21  1  0  0  0
 20 43  1  0  0  0
 20 44  1  0  0  0
 21 22  1  0  0  0
 21 24  1  0  0  0
 21 45  1  0  0  0
 22 23  1  0  0  0
 22 46  1  0  0  0
 22 47  1  0  0  0
 23 48  1  0  0  0
 23 49  1  0  0  0
 24 25  1  0  0  0
 24 50  1  0  0  0
 24 51  1  0  0  0
 25 52  1  0  0  0
 26 27  3  0  0  0
 28 29  1  0  0  0
 28 30  2  0  0  0
 30 53  1  0  0  0
M  END
> <chembl_id>
CHEMBL3702595

> <chembl_pref_name>
None

> <i_m_ct_stereo_status>
1

> <s_m_source_file>
sdf/inactives_sanitized.sdf

> <i_m_source_file_index>
328

> <i_lp_mmshare_version>
49012

> <i_f3d_flags>
0

> <s_epik_input>
W05IMl1DKD1PKWMxW2NIXWMoW2NIXXMxKS1jMltjSF1bY0hdYyhjKEYpW2NIXTIpW0NIMl1bQ0BASF0oQyNOKVtOSF1DKD1PKVtDQF0zNFtDSDJdW0NIMl1bQ0BIXShbQ0gyXVtDSDJdMylbQ0gyXVtOSF00

> <s_epik_cmdline>
J2VwaWtfcHl0aG9uJywgJy1waHQnLCAnMC41JywgJy1waCcsICc3LjUnLCAnLW50JywgJy1tYScsICcyMDAnLCAnLWltYWUnLCAnPGluZmlsZS5tYWU+JywgJy1vbWFlJywgJzxvdXRmaWxlLm1hZT4n

> <r_epik_Ionization_Penalty>
  0.6336

> <r_epik_Ionization_Penalty_Charging>
  0.0000

> <r_epik_Ionization_Penalty_Neutral>
  0.6336

> <r_epik_State_Penalty>
  0.6506

> <r_epik_Charging_Adjusted_Penalty>
0.650608926039391

> <i_epik_Tot_Q>
0

> <i_epik_Tot_abs_Q>
0

> <s_lp_Force_Field>
OPLS3e

> <r_lp_Energy>
40.007508

> <b_lp_Chiralities_Consistent>
1

> <s_lp_Variant>
sdf/inactives_sanitized.sdf:328-2

$$$$
sdf/inactives_sanitized.sdf:329
                    3D
 Schrodinger Suite 2020-1.
 65 68  0  0  1  0            999 V2000
   -2.0677    0.3775   -0.1431 C   0  0  0  0  0  0
   -2.4861    1.8010    0.3916 C   0  0  0  0  0  0
   -2.7485    2.9326   -0.6259 C   0  0  0  0  0  0
   -3.4318    2.4816   -1.9191 C   0  0  0  0  0  0
   -2.6403    1.3510   -2.5810 C   0  0  0  0  0  0
   -2.3802    0.1314   -1.6708 C   0  0  0  0  0  0
   -6.6989   -1.7963    1.1537 C   0  0  0  0  0  0
   -5.6393   -2.4769    1.7663 C   0  0  0  0  0  0
   -4.3240   -2.0606    1.5833 C   0  0  0  0  0  0
   -4.0268   -0.9587    0.7825 C   0  0  0  0  0  0
   -5.0816   -0.2700    0.1733 C   0  0  0  0  0  0
   -6.3981   -0.6844    0.3566 C   0  0  0  0  0  0
   -2.6793   -0.6494    0.6796 O   0  0  0  0  0  0
   -0.5173    0.3336   -0.0388 C   0  0  0  0  0  0
    0.0238   -0.6497    0.7060 N   0  0  0  0  0  0
    0.1710    1.1663   -0.6360 O   0  0  0  0  0  0
    1.4548   -0.8766    0.8981 C   0  0  0  0  0  0
    2.1384   -1.5071   -0.3279 C   0  0  0  0  0  0
    3.5437   -1.8190   -0.0926 N   0  0  0  0  0  0
    4.3319   -2.4328   -1.0821 C   0  0  0  0  0  0
    3.8011   -2.9557   -2.2686 C   0  0  0  0  0  0
    4.6391   -3.5534   -3.2059 C   0  0  0  0  0  0
    6.0121   -3.6423   -2.9777 C   0  0  0  0  0  0
    6.5425   -3.1191   -1.7886 C   0  0  0  0  0  0
    5.7054   -2.5198   -0.8510 C   0  0  0  0  0  0
    6.7627   -4.2534   -3.9637 O   0  0  0  0  0  0
    8.1689   -4.3845   -3.7851 C   0  0  0  0  0  0
   -8.1130   -2.2464    1.3451 C   0  0  0  0  0  0
   -9.1657   -1.3190    1.3706 C   0  0  0  0  0  0
  -10.4819   -1.7372    1.5493 C   0  0  0  0  0  0
  -10.7601   -3.0918    1.7034 C   0  0  0  0  0  0
   -9.7323   -4.0291    1.6807 C   0  0  0  0  0  0
   -8.4175   -3.6069    1.5030 C   0  0  0  0  0  0
   -1.9292    2.1170    1.2764 H   0  0  0  0  0  0
   -3.4777    1.6859    0.8217 H   0  0  0  0  0  0
   -3.3302    3.7279   -0.1573 H   0  0  0  0  0  0
   -1.7900    3.3862   -0.8829 H   0  0  0  0  0  0
   -4.4611    2.1819   -1.7337 H   0  0  0  0  0  0
   -3.4971    3.3261   -2.6063 H   0  0  0  0  0  0
   -3.1426    1.0337   -3.4961 H   0  0  0  0  0  0
   -1.6754    1.7474   -2.9010 H   0  0  0  0  0  0
   -1.7555   -0.6397   -2.1270 H   0  0  0  0  0  0
   -3.3472   -0.3609   -1.7175 H   0  0  0  0  0  0
   -5.8261   -3.3312    2.4004 H   0  0  0  0  0  0
   -3.5255   -2.6025    2.0692 H   0  0  0  0  0  0
   -4.9056    0.5864   -0.4485 H   0  0  0  0  0  0
   -7.1840   -0.1358   -0.1413 H   0  0  0  0  0  0
   -0.5987   -1.2931    1.1736 H   0  0  0  0  0  0
    1.9536    0.0535    1.1787 H   0  0  0  0  0  0
    1.5707   -1.5380    1.7576 H   0  0  0  0  0  0
    1.6189   -2.4206   -0.6206 H   0  0  0  0  0  0
    2.0779   -0.8329   -1.1837 H   0  0  0  0  0  0
    4.0324   -1.2456    0.5802 H   0  0  0  0  0  0
    2.7442   -2.9059   -2.4827 H   0  0  0  0  0  0
    4.2180   -3.9519   -4.1174 H   0  0  0  0  0  0
    7.5991   -3.1682   -1.5744 H   0  0  0  0  0  0
    6.1339   -2.1240    0.0589 H   0  0  0  0  0  0
    8.5959   -4.8879   -4.6523 H   0  0  0  0  0  0
    8.4059   -4.9851   -2.9056 H   0  0  0  0  0  0
    8.6540   -3.4112   -3.6969 H   0  0  0  0  0  0
   -8.9712   -0.2620    1.2638 H   0  0  0  0  0  0
  -11.2833   -1.0134    1.5706 H   0  0  0  0  0  0
  -11.7806   -3.4176    1.8415 H   0  0  0  0  0  0
   -9.9533   -5.0799    1.7981 H   0  0  0  0  0  0
   -7.6363   -4.3523    1.4773 H   0  0  0  0  0  0
  1  6  1  0  0  0
  1 13  1  0  0  0
  1 14  1  0  0  0
  1  2  1  0  0  0
  2  3  1  0  0  0
  2 34  1  0  0  0
  2 35  1  0  0  0
  3  4  1  0  0  0
  3 36  1  0  0  0
  3 37  1  0  0  0
  4  5  1  0  0  0
  4 38  1  0  0  0
  4 39  1  0  0  0
  5  6  1  0  0  0
  5 40  1  0  0  0
  5 41  1  0  0  0
  6 42  1  0  0  0
  6 43  1  0  0  0
  7 12  2  0  0  0
  7  8  1  0  0  0
  7 28  1  0  0  0
  8  9  2  0  0  0
  8 44  1  0  0  0
  9 10  1  0  0  0
  9 45  1  0  0  0
 10 11  2  0  0  0
 10 13  1  0  0  0
 11 12  1  0  0  0
 11 46  1  0  0  0
 12 47  1  0  0  0
 14 16  2  0  0  0
 14 15  1  0  0  0
 15 17  1  0  0  0
 15 48  1  0  0  0
 17 18  1  0  0  0
 17 49  1  0  0  0
 17 50  1  0  0  0
 18 19  1  0  0  0
 18 51  1  0  0  0
 18 52  1  0  0  0
 19 20  1  0  0  0
 19 53  1  0  0  0
 20 21  2  0  0  0
 20 25  1  0  0  0
 21 22  1  0  0  0
 21 54  1  0  0  0
 22 23  2  0  0  0
 22 55  1  0  0  0
 23 24  1  0  0  0
 23 26  1  0  0  0
 24 25  2  0  0  0
 24 56  1  0  0  0
 25 57  1  0  0  0
 26 27  1  0  0  0
 27 58  1  0  0  0
 27 59  1  0  0  0
 27 60  1  0  0  0
 28 29  2  0  0  0
 28 33  1  0  0  0
 29 30  1  0  0  0
 29 61  1  0  0  0
 30 31  2  0  0  0
 30 62  1  0  0  0
 31 32  1  0  0  0
 31 63  1  0  0  0
 32 33  2  0  0  0
 32 64  1  0  0  0
 33 65  1  0  0  0
M  END
> <chembl_id>
CHEMBL206053

> <chembl_pref_name>
None

> <s_m_source_file>
sdf/inactives_sanitized.sdf

> <i_m_source_file_index>
329

> <i_lp_mmshare_version>
49012

> <i_m_ct_stereo_status>
1

> <i_f3d_flags>
0

> <s_epik_input>
W2NIXTFbY0hdW2NIXVtjSF1bY0hdYzEtYzJbY0hdW2NIXWMoW2NIXVtjSF0yKU9DMyhbQ0gyXVtDSDJdW0NIMl1bQ0gyXVtDSDJdMylDKD1PKVtOSF1bQ0gyXVtDSDJdW05IXWM0W2NIXVtjSF1jKFtjSF1bY0hdNClPW0NIM10=

> <s_epik_cmdline>
J2VwaWtfcHl0aG9uJywgJy1waHQnLCAnMC41JywgJy1waCcsICc3LjUnLCAnLW50JywgJy1tYScsICcyMDAnLCAnLWltYWUnLCAnPGluZmlsZS5tYWU+JywgJy1vbWFlJywgJzxvdXRmaWxlLm1hZT4n

> <r_lp_tautomer_probability>
1

> <r_epik_Ionization_Penalty>
  0.0016

> <r_epik_Ionization_Penalty_Charging>
  0.0000

> <r_epik_Ionization_Penalty_Neutral>
  0.0016

> <r_epik_State_Penalty>
 -0.0000

> <r_epik_Charging_Adjusted_Penalty>
0

> <i_epik_Tot_Q>
0

> <i_epik_Tot_abs_Q>
0

> <s_lp_Force_Field>
OPLS3e

> <r_lp_Energy>
57.984042

> <b_lp_Chiralities_Consistent>
1

> <s_lp_Variant>
sdf/inactives_sanitized.sdf:329-1

$$$$
sdf/inactives_sanitized.sdf:330
                    3D
 Schrodinger Suite 2020-1.
 55 54  0  0  1  0            999 V2000
   -1.4894    3.9633    2.4131 C   0  0  0  0  0  0
   -0.6642    3.1063    1.6022 O   0  0  0  0  0  0
   -1.3386    3.6323    3.9187 C   0  0  0  0  0  0
   -2.9737    3.8956    1.9751 C   0  0  0  0  0  0
   -0.9442    5.3813    2.1466 C   0  0  0  0  0  0
   -0.7810    1.7545    1.5124 C   0  0  0  0  0  0
    0.1825    1.2869    0.6310 N   0  0  0  0  0  0
   -1.6063    1.0688    2.1176 O   0  0  0  0  0  0
    0.3511   -0.1317    0.2720 C   0  0  2  0  0  0
    1.8487   -0.4529    0.1327 C   0  0  0  0  0  0
    2.7983    0.3871    0.2576 N   0  0  0  0  0  0
   -0.3917   -0.5061   -1.0408 C   0  0  0  0  0  0
   -1.9298   -0.3692   -1.0171 C   0  0  0  0  0  0
   -2.6395   -1.3746   -0.0901 C   0  0  0  0  0  0
   -4.1654   -1.2170   -0.0994 C   0  0  0  0  0  0
    4.0129   -0.1749    0.1224 N   0  0  0  0  0  0
    5.1458    0.5220    0.3189 C   0  0  0  0  0  0
    5.2157    1.7523    0.3877 O   0  0  0  0  0  0
    6.1861   -0.2968    0.5591 N   0  0  0  0  0  0
    7.4713    0.0945    1.1597 C   0  0  0  0  0  0
    7.3605    0.5033    2.6448 C   0  0  0  0  0  0
    6.3225   -0.0669    3.3044 O   0  0  0  0  0  0
    8.1837    1.2745    3.1406 O   0  0  0  0  0  0
    6.0785    0.2275    4.6725 C   0  0  0  0  0  0
    4.8040   -0.4930    5.1229 C   0  0  0  0  0  0
   -1.8559    4.3645    4.5397 H   0  0  0  0  0  0
   -0.2903    3.6301    4.2195 H   0  0  0  0  0  0
   -1.7473    2.6536    4.1700 H   0  0  0  0  0  0
   -3.4220    2.9242    2.1834 H   0  0  0  0  0  0
   -3.0781    4.0747    0.9044 H   0  0  0  0  0  0
   -3.5747    4.6441    2.4926 H   0  0  0  0  0  0
   -1.4927    6.1361    2.7116 H   0  0  0  0  0  0
   -1.0162    5.6456    1.0905 H   0  0  0  0  0  0
    0.1075    5.4638    2.4251 H   0  0  0  0  0  0
    0.8066    1.9576    0.2070 H   0  0  0  0  0  0
   -0.0293   -0.7578    1.0813 H   0  0  0  0  0  0
    2.0102   -1.5104   -0.0733 H   0  0  0  0  0  0
   -0.1510   -1.5327   -1.3252 H   0  0  0  0  0  0
   -0.0088    0.1127   -1.8552 H   0  0  0  0  0  0
   -2.2106    0.6495   -0.7485 H   0  0  0  0  0  0
   -2.3014   -0.5128   -2.0328 H   0  0  0  0  0  0
   -2.3831   -2.3915   -0.3898 H   0  0  0  0  0  0
   -2.2842   -1.2619    0.9337 H   0  0  0  0  0  0
   -4.6356   -1.9471    0.5598 H   0  0  0  0  0  0
   -4.5732   -1.3635   -1.1001 H   0  0  0  0  0  0
   -4.4612   -0.2244    0.2425 H   0  0  0  0  0  0
    4.0171   -1.1786    0.0151 H   0  0  0  0  0  0
    6.1056   -1.2644    0.2819 H   0  0  0  0  0  0
    8.1472   -0.7582    1.0941 H   0  0  0  0  0  0
    7.9342    0.8946    0.5790 H   0  0  0  0  0  0
    6.9261   -0.0942    5.2793 H   0  0  0  0  0  0
    5.9636    1.3040    4.8097 H   0  0  0  0  0  0
    4.5908   -0.2841    6.1713 H   0  0  0  0  0  0
    4.9010   -1.5734    5.0122 H   0  0  0  0  0  0
    3.9419   -0.1713    4.5377 H   0  0  0  0  0  0
  1  4  1  0  0  0
  1  5  1  0  0  0
  1  3  1  0  0  0
  1  2  1  0  0  0
  2  6  1  0  0  0
  3 26  1  0  0  0
  3 27  1  0  0  0
  3 28  1  0  0  0
  4 29  1  0  0  0
  4 30  1  0  0  0
  4 31  1  0  0  0
  5 32  1  0  0  0
  5 33  1  0  0  0
  5 34  1  0  0  0
  6  7  1  0  0  0
  6  8  2  0  0  0
  7  9  1  0  0  0
  7 35  1  0  0  0
  9 10  1  0  0  0
  9 12  1  0  0  0
  9 36  1  0  0  0
 10 11  2  0  0  0
 10 37  1  0  0  0
 11 16  1  0  0  0
 12 13  1  0  0  0
 12 38  1  0  0  0
 12 39  1  0  0  0
 13 14  1  0  0  0
 13 40  1  0  0  0
 13 41  1  0  0  0
 14 15  1  0  0  0
 14 42  1  0  0  0
 14 43  1  0  0  0
 15 44  1  0  0  0
 15 45  1  0  0  0
 15 46  1  0  0  0
 16 17  1  0  0  0
 16 47  1  0  0  0
 17 18  2  0  0  0
 17 19  1  0  0  0
 19 20  1  0  0  0
 19 48  1  0  0  0
 20 21  1  0  0  0
 20 49  1  0  0  0
 20 50  1  0  0  0
 21 22  1  0  0  0
 21 23  2  0  0  0
 22 24  1  0  0  0
 24 25  1  0  0  0
 24 51  1  0  0  0
 24 52  1  0  0  0
 25 53  1  0  0  0
 25 54  1  0  0  0
 25 55  1  0  0  0
M  END
> <chembl_id>
CHEMBL205071

> <chembl_pref_name>
None

> <i_m_ct_stereo_status>
1

> <s_m_source_file>
sdf/inactives_sanitized.sdf

> <i_m_source_file_index>
330

> <i_lp_mmshare_version>
49012

> <i_f3d_flags>
0

> <s_epik_input>
W0NIM11DKFtDSDNdKShbQ0gzXSlPQyg9TylbTkhdW0NAQEhdKFtDSDJdW0NIMl1bQ0gyXVtDSDNdKS9bQ0hdPU4vW05IXUMoPU8pW05IXVtDSDJdQyg9TylPW0NIMl1bQ0gzXQ==

> <s_epik_cmdline>
J2VwaWtfcHl0aG9uJywgJy1waHQnLCAnMC41JywgJy1waCcsICc3LjUnLCAnLW50JywgJy1tYScsICcyMDAnLCAnLWltYWUnLCAnPGluZmlsZS5tYWU+JywgJy1vbWFlJywgJzxvdXRmaWxlLm1hZT4n

> <r_lp_tautomer_probability>
1

> <r_epik_Ionization_Penalty>
  0.0003

> <r_epik_Ionization_Penalty_Charging>
  0.0000

> <r_epik_Ionization_Penalty_Neutral>
  0.0003

> <r_epik_State_Penalty>
 -0.0000

> <r_epik_Charging_Adjusted_Penalty>
0

> <i_epik_Tot_Q>
0

> <i_epik_Tot_abs_Q>
0

> <s_epik_Chemistry_Notes>
This compound has an ester and may undergo hydrolysis at high or low pH. This compound has an imine and may undergo hydrolysis.

> <s_lp_Force_Field>
OPLS3e

> <r_lp_Energy>
17.44173

> <b_lp_Chiralities_Consistent>
1

> <s_lp_Variant>
sdf/inactives_sanitized.sdf:330-1

$$$$
sdf/inactives_sanitized.sdf:331
                    3D
 Schrodinger Suite 2020-1.
 46 45  0  0  1  0            999 V2000
   -2.4422    4.0376   -1.5960 C   0  0  0  0  0  0
   -1.8804    3.0482   -0.7127 O   0  0  0  0  0  0
   -3.6720    3.4822   -2.3569 C   0  0  0  0  0  0
   -1.3785    4.5816   -2.5819 C   0  0  0  0  0  0
   -2.8955    5.1757   -0.6587 C   0  0  0  0  0  0
   -1.3446    1.8593   -1.1007 C   0  0  0  0  0  0
   -0.8927    1.1888    0.0268 N   0  0  0  0  0  0
   -1.2765    1.4546   -2.2624 O   0  0  0  0  0  0
   -0.2279   -0.1178   -0.0135 C   0  0  2  0  0  0
   -0.6386   -0.8148    1.2780 C   0  0  0  0  0  0
   -1.1767   -1.9649    1.2842 N   0  0  0  0  0  0
    1.3206   -0.0161   -0.0941 C   0  0  0  0  0  0
    1.8969    0.5826   -1.3956 C   0  0  0  0  0  0
    1.6695   -0.2857   -2.6478 C   0  0  0  0  0  0
    2.2699    0.3331   -3.9170 C   0  0  0  0  0  0
   -1.4539   -2.3972    2.5282 N   0  0  0  0  0  0
   -2.0755   -3.5672    2.7623 C   0  0  0  0  0  0
   -2.3299   -4.4145    1.9011 O   0  0  0  0  0  0
   -2.4359   -3.6737    4.0511 N   0  0  0  0  0  0
   -3.2020   -4.7801    4.6137 C   0  0  0  0  0  0
   -4.1773    4.2665   -2.9218 H   0  0  0  0  0  0
   -4.4015    3.0524   -1.6691 H   0  0  0  0  0  0
   -3.4011    2.7010   -3.0671 H   0  0  0  0  0  0
   -1.0528    3.8266   -3.2972 H   0  0  0  0  0  0
   -0.4898    4.9276   -2.0525 H   0  0  0  0  0  0
   -1.7646    5.4236   -3.1578 H   0  0  0  0  0  0
   -3.3374    6.0031   -1.2155 H   0  0  0  0  0  0
   -2.0593    5.5776   -0.0846 H   0  0  0  0  0  0
   -3.6398    4.8299    0.0602 H   0  0  0  0  0  0
   -1.0093    1.6338    0.9253 H   0  0  0  0  0  0
   -0.5994   -0.6960   -0.8632 H   0  0  0  0  0  0
   -0.4064   -0.2391    2.1740 H   0  0  0  0  0  0
    1.6861    0.5821    0.7432 H   0  0  0  0  0  0
    1.7621   -1.0049    0.0473 H   0  0  0  0  0  0
    1.4941    1.5828   -1.5566 H   0  0  0  0  0  0
    2.9707    0.7217   -1.2612 H   0  0  0  0  0  0
    2.1045   -1.2738   -2.4912 H   0  0  0  0  0  0
    0.6038   -0.4457   -2.8094 H   0  0  0  0  0  0
    2.1022   -0.3115   -4.7803 H   0  0  0  0  0  0
    3.3460    0.4786   -3.8170 H   0  0  0  0  0  0
    1.8186    1.3018   -4.1351 H   0  0  0  0  0  0
   -1.2377   -1.7503    3.2723 H   0  0  0  0  0  0
   -2.1854   -2.9325    4.6891 H   0  0  0  0  0  0
   -2.8264   -5.0188    5.6086 H   0  0  0  0  0  0
   -3.1404   -5.6853    4.0073 H   0  0  0  0  0  0
   -4.2512   -4.4988    4.7052 H   0  0  0  0  0  0
  1  3  1  0  0  0
  1  2  1  0  0  0
  1  4  1  0  0  0
  1  5  1  0  0  0
  2  6  1  0  0  0
  3 21  1  0  0  0
  3 22  1  0  0  0
  3 23  1  0  0  0
  4 24  1  0  0  0
  4 25  1  0  0  0
  4 26  1  0  0  0
  5 27  1  0  0  0
  5 28  1  0  0  0
  5 29  1  0  0  0
  6  7  1  0  0  0
  6  8  2  0  0  0
  7  9  1  0  0  0
  7 30  1  0  0  0
  9 12  1  0  0  0
  9 10  1  0  0  0
  9 31  1  0  0  0
 10 11  2  0  0  0
 10 32  1  0  0  0
 11 16  1  0  0  0
 12 13  1  0  0  0
 12 33  1  0  0  0
 12 34  1  0  0  0
 13 14  1  0  0  0
 13 35  1  0  0  0
 13 36  1  0  0  0
 14 15  1  0  0  0
 14 37  1  0  0  0
 14 38  1  0  0  0
 15 39  1  0  0  0
 15 40  1  0  0  0
 15 41  1  0  0  0
 16 17  1  0  0  0
 16 42  1  0  0  0
 17 18  2  0  0  0
 17 19  1  0  0  0
 19 20  1  0  0  0
 19 43  1  0  0  0
 20 44  1  0  0  0
 20 45  1  0  0  0
 20 46  1  0  0  0
M  END
> <chembl_id>
CHEMBL381047

> <chembl_pref_name>
None

> <i_m_ct_stereo_status>
1

> <s_m_source_file>
sdf/inactives_sanitized.sdf

> <i_m_source_file_index>
331

> <i_lp_mmshare_version>
49012

> <i_f3d_flags>
0

> <s_epik_input>
W0NIM11DKFtDSDNdKShbQ0gzXSlPQyg9TylbTkhdW0NAQEhdKFtDSDJdW0NIMl1bQ0gyXVtDSDNdKS9bQ0hdPU4vW05IXUMoPU8pW05IXVtDSDNd

> <s_epik_cmdline>
J2VwaWtfcHl0aG9uJywgJy1waHQnLCAnMC41JywgJy1waCcsICc3LjUnLCAnLW50JywgJy1tYScsICcyMDAnLCAnLWltYWUnLCAnPGluZmlsZS5tYWU+JywgJy1vbWFlJywgJzxvdXRmaWxlLm1hZT4n

> <r_lp_tautomer_probability>
1

> <r_epik_Ionization_Penalty>
  0.0001

> <r_epik_Ionization_Penalty_Charging>
  0.0000

> <r_epik_Ionization_Penalty_Neutral>
  0.0001

> <r_epik_State_Penalty>
 -0.0000

> <r_epik_Charging_Adjusted_Penalty>
0

> <i_epik_Tot_Q>
0

> <i_epik_Tot_abs_Q>
0

> <s_epik_Chemistry_Notes>
This compound has an ester and may undergo hydrolysis at high or low pH. This compound has an imine and may undergo hydrolysis.

> <s_lp_Force_Field>
OPLS3e

> <r_lp_Energy>
14.627155

> <b_lp_Chiralities_Consistent>
1

> <s_lp_Variant>
sdf/inactives_sanitized.sdf:331-1

$$$$
sdf/inactives_sanitized.sdf:332
                    3D
 Schrodinger Suite 2020-1.
 76 80  0  0  1  0            999 V2000
   -1.4961   -2.7021   -2.8031 C   0  0  0  0  0  0
   -2.0668   -3.2424   -1.4805 C   0  0  0  0  0  0
   -2.2250   -2.1614   -0.3773 C   0  0  2  0  0  0
   -0.9330   -1.5892    0.0253 N   0  0  0  0  0  0
   -0.4818   -0.3664   -0.3067 C   0  0  0  0  0  0
   -1.1500    0.4419   -0.9545 O   0  0  0  0  0  0
    0.9378   -0.0044    0.1797 C   0  0  2  0  0  0
    0.8831    0.9406    1.3856 C   0  0  0  0  0  0
    2.2273    1.6504    1.3036 C   0  0  2  0  0  0
    2.5244    1.6855   -0.2018 C   0  0  0  0  0  0
    1.7195    0.6595   -0.8713 N   0  0  0  0  0  0
    2.2664   -0.0670   -1.9074 C   0  0  0  0  0  0
    2.4251   -1.4308   -2.1075 C   0  0  0  0  0  0
    3.0584   -1.5871   -3.3428 C   0  0  0  0  0  0
    3.4745   -2.8580   -4.0443 C   0  0  0  0  0  0
    3.2857   -0.4194   -3.8991 N   0  0  0  0  0  0
    2.7869    0.4997   -3.0552 N   0  0  0  0  0  0
    2.9026    1.9187   -3.4093 C   0  0  0  0  0  0
    2.9792    2.3833   -4.8782 C   0  0  0  0  0  0
    3.8791    3.5312   -4.3989 C   0  0  0  0  0  0
    4.2475    2.6362   -3.2073 C   0  0  0  0  0  0
    3.5617    0.6888    2.2732 S   0  0  0  0  0  0
    3.2174    0.7141    3.6982 O   0  0  0  0  0  0
    3.7613   -0.6093    1.6168 O   0  0  0  0  0  0
    5.0795    1.6531    2.0233 C   0  0  0  0  0  0
    5.9001    1.2437    0.9615 C   0  0  0  0  0  0
    7.0909    1.9019    0.6738 C   0  0  0  0  0  0
    7.4867    2.9828    1.4504 C   0  0  0  0  0  0
    8.6474    3.6217    1.1806 F   0  0  0  0  0  0
    6.6866    3.4061    2.5075 C   0  0  0  0  0  0
    5.4723    2.7669    2.8110 C   0  0  0  0  0  0
    4.6590    3.3051    4.0004 C   0  0  0  0  0  0
    5.0778    4.5099    4.3943 F   0  0  0  0  0  0
    3.3690    3.4360    3.7004 F   0  0  0  0  0  0
    4.7913    2.4808    5.0393 F   0  0  0  0  0  0
   -2.8265   -2.7177    0.9125 C   0  0  0  0  0  0
   -3.0029   -3.9223    1.1214 O   0  0  0  0  0  0
   -3.2688   -1.6424    1.9971 C   0  0  0  0  0  0
   -3.3304   -0.4416    1.7271 O   0  0  0  0  0  0
   -3.5388   -2.1985    3.1923 N   0  0  0  0  0  0
   -4.0501   -1.4617    4.3430 C   0  0  0  0  0  0
   -3.1990   -0.3757    4.9687 C   0  0  0  0  0  0
   -3.4013   -1.6869    5.6887 C   0  0  0  0  0  0
   -1.4470   -3.4893   -3.5557 H   0  0  0  0  0  0
   -0.4868   -2.3101   -2.6753 H   0  0  0  0  0  0
   -2.1171   -1.9001   -3.2034 H   0  0  0  0  0  0
   -3.0350   -3.7014   -1.6883 H   0  0  0  0  0  0
   -1.4132   -4.0443   -1.1319 H   0  0  0  0  0  0
   -2.8991   -1.3960   -0.7700 H   0  0  0  0  0  0
   -0.3167   -2.2164    0.5218 H   0  0  0  0  0  0
    1.4254   -0.9376    0.4714 H   0  0  0  0  0  0
    0.0727    1.6707    1.3238 H   0  0  0  0  0  0
    0.7634    0.4151    2.3341 H   0  0  0  0  0  0
    2.1857    2.6417    1.7504 H   0  0  0  0  0  0
    2.2362    2.6658   -0.5822 H   0  0  0  0  0  0
    3.5908    1.5409   -0.3671 H   0  0  0  0  0  0
    2.1259   -2.2226   -1.4369 H   0  0  0  0  0  0
    3.2578   -3.7419   -3.4441 H   0  0  0  0  0  0
    4.5439   -2.8718   -4.2575 H   0  0  0  0  0  0
    2.9538   -2.9829   -4.9942 H   0  0  0  0  0  0
    2.0803    2.4165   -2.8906 H   0  0  0  0  0  0
    3.4883    1.6854   -5.5464 H   0  0  0  0  0  0
    2.0272    2.6605   -5.3318 H   0  0  0  0  0  0
    4.7024    3.7959   -5.0632 H   0  0  0  0  0  0
    3.3313    4.4337   -4.1195 H   0  0  0  0  0  0
    5.1153    1.9981   -3.3893 H   0  0  0  0  0  0
    4.3789    3.1276   -2.2429 H   0  0  0  0  0  0
    5.6208    0.4059    0.3397 H   0  0  0  0  0  0
    7.7075    1.5704   -0.1488 H   0  0  0  0  0  0
    7.0295    4.2470    3.0921 H   0  0  0  0  0  0
   -3.5047   -3.2044    3.2744 H   0  0  0  0  0  0
   -5.1286   -1.3015    4.3111 H   0  0  0  0  0  0
   -2.2244   -0.1539    4.5325 H   0  0  0  0  0  0
   -3.6990    0.5189    5.3402 H   0  0  0  0  0  0
   -2.5677   -2.3863    5.7593 H   0  0  0  0  0  0
   -4.0410   -1.7147    6.5708 H   0  0  0  0  0  0
  1  2  1  0  0  0
  1 44  1  0  0  0
  1 45  1  0  0  0
  1 46  1  0  0  0
  2  3  1  0  0  0
  2 47  1  0  0  0
  2 48  1  0  0  0
  3  4  1  0  0  0
  3 36  1  0  0  0
  3 49  1  0  0  0
  4  5  1  0  0  0
  4 50  1  0  0  0
  5  6  2  0  0  0
  5  7  1  0  0  0
  7  8  1  0  0  0
  7 11  1  0  0  0
  7 51  1  0  0  0
  8  9  1  0  0  0
  8 52  1  0  0  0
  8 53  1  0  0  0
  9 10  1  0  0  0
  9 22  1  0  0  0
  9 54  1  0  0  0
 10 11  1  0  0  0
 10 55  1  0  0  0
 10 56  1  0  0  0
 11 12  1  0  0  0
 12 13  2  0  0  0
 12 17  1  0  0  0
 13 14  1  0  0  0
 13 57  1  0  0  0
 14 15  1  0  0  0
 14 16  2  0  0  0
 15 58  1  0  0  0
 15 59  1  0  0  0
 15 60  1  0  0  0
 16 17  1  0  0  0
 17 18  1  0  0  0
 18 19  1  0  0  0
 18 21  1  0  0  0
 18 61  1  0  0  0
 19 20  1  0  0  0
 19 62  1  0  0  0
 19 63  1  0  0  0
 20 21  1  0  0  0
 20 64  1  0  0  0
 20 65  1  0  0  0
 21 66  1  0  0  0
 21 67  1  0  0  0
 22 23  2  0  0  0
 22 24  2  0  0  0
 22 25  1  0  0  0
 25 26  2  0  0  0
 25 31  1  0  0  0
 26 27  1  0  0  0
 26 68  1  0  0  0
 27 28  2  0  0  0
 27 69  1  0  0  0
 28 29  1  0  0  0
 28 30  1  0  0  0
 30 31  2  0  0  0
 30 70  1  0  0  0
 31 32  1  0  0  0
 32 33  1  0  0  0
 32 34  1  0  0  0
 32 35  1  0  0  0
 36 37  2  0  0  0
 36 38  1  0  0  0
 38 39  2  0  0  0
 38 40  1  0  0  0
 40 41  1  0  0  0
 40 71  1  0  0  0
 41 42  1  0  0  0
 41 43  1  0  0  0
 41 72  1  0  0  0
 42 43  1  0  0  0
 42 73  1  0  0  0
 42 74  1  0  0  0
 43 75  1  0  0  0
 43 76  1  0  0  0
M  END
> <chembl_id>
CHEMBL3649365

> <chembl_pref_name>
None

> <i_m_ct_stereo_status>
1

> <s_m_source_file>
sdf/inactives_sanitized.sdf

> <i_m_source_file_index>
332

> <i_lp_mmshare_version>
49012

> <i_f3d_flags>
0

> <s_epik_input>
W0NIMl0xW0NIMl1bQ0hdMVtOSF1DKD1PKUMoPU8pW0NASF0oW0NIMl1bQ0gzXSlbTkhdQyg9TylbQ0BASF0yW0NIMl1bQ0BASF0oUyg9TykoPU8pYzNbY0hdW2NIXWMoRilbY0hdYzNDKEYpKEYpRilbQ0gyXU4yYzRbY0hdYyhbQ0gzXSlubjRbQ0hdNVtDSDJdW0NIMl1bQ0gyXTU=

> <s_epik_cmdline>
J2VwaWtfcHl0aG9uJywgJy1waHQnLCAnMC41JywgJy1waCcsICc3LjUnLCAnLW50JywgJy1tYScsICcyMDAnLCAnLWltYWUnLCAnPGluZmlsZS5tYWU+JywgJy1vbWFlJywgJzxvdXRmaWxlLm1hZT4n

> <r_lp_tautomer_probability>
1

> <r_epik_Ionization_Penalty>
  0.0016

> <r_epik_Ionization_Penalty_Charging>
  0.0000

> <r_epik_Ionization_Penalty_Neutral>
  0.0016

> <r_epik_State_Penalty>
 -0.0000

> <r_epik_Charging_Adjusted_Penalty>
0

> <i_epik_Tot_Q>
0

> <i_epik_Tot_abs_Q>
0

> <s_lp_Force_Field>
OPLS3e

> <r_lp_Energy>
45.620379

> <b_lp_Chiralities_Consistent>
1

> <s_lp_Variant>
sdf/inactives_sanitized.sdf:332-1

$$$$
sdf/inactives_sanitized.sdf:333
                    3D
 Schrodinger Suite 2020-1.
 73 77  0  0  1  0            999 V2000
   -3.0545    1.6447   -0.4532 N   0  0  0  0  0  0
   -4.2386    1.0069   -0.6538 C   0  0  0  0  0  0
   -4.4800   -0.3291   -0.6359 N   0  0  0  0  0  0
   -3.4141   -1.1347   -0.3912 C   0  0  0  0  0  0
   -2.0271    0.8117   -0.2241 C   0  0  0  0  0  0
   -2.1318   -0.6032   -0.1751 C   0  0  0  0  0  0
   -0.8266   -1.1052    0.0951 C   0  0  0  0  0  0
    0.0342   -0.0200    0.1982 C   0  0  0  0  0  0
   -0.6973    1.1474   -0.0019 N   0  0  0  0  0  0
    1.5286    0.0060    0.4767 C   0  0  0  0  0  0
    1.9986   -1.3257    0.6752 O   0  0  0  0  0  0
   -5.3817    1.8615   -0.9263 C   0  0  0  0  0  0
   -6.2919    2.5429   -1.1436 N   0  0  0  0  0  0
   -0.1519    2.5120    0.0047 C   0  0  0  0  0  0
    0.4675    2.9033   -1.3600 C   0  0  0  0  0  0
   -0.5160    3.0148   -2.5576 C   0  0  0  0  0  0
    3.3521   -1.5517    0.8360 C   0  0  0  0  0  0
    3.7518   -2.8795    0.9596 C   0  0  0  0  0  0
    5.0962   -3.2041    1.1157 C   0  0  0  0  0  0
    6.0840   -2.2064    1.1653 C   0  0  0  0  0  0
    5.6688   -0.8713    1.0354 C   0  0  0  0  0  0
    4.3248   -0.5442    0.8775 C   0  0  0  0  0  0
    7.4417   -2.5257    1.2952 N   0  0  0  0  0  0
    8.3478   -1.6655    2.0835 C   0  0  0  0  0  0
    9.8604   -1.8377    1.8181 C   0  0  0  0  0  0
   10.1919   -3.2654    1.8711 N   0  0  0  0  0  0
    9.4277   -4.1129    0.9507 C   0  0  0  0  0  0
    7.9192   -3.9208    1.2227 C   0  0  0  0  0  0
   11.0132   -3.8099    2.8081 C   0  0  0  0  0  0
   11.8439   -2.8899    3.7089 C   0  0  0  0  0  0
   11.1893   -5.0242    2.9229 O   0  0  0  0  0  0
   -1.5189    4.1830   -2.3562 C   0  0  0  0  0  0
   -2.3305    4.6216   -3.5907 C   0  0  0  0  0  0
    0.2445    3.0263   -3.9114 C   0  0  0  0  0  0
   -1.6063    5.6507   -4.4817 C   0  0  0  0  0  0
    0.6920    4.4007   -4.4485 C   0  0  0  0  0  0
   -0.3895    5.1313   -5.2695 C   0  0  0  0  0  0
   -3.5956   -2.1993   -0.3740 H   0  0  0  0  0  0
   -0.5319   -2.1389    0.2030 H   0  0  0  0  0  0
    2.0523    0.4602   -0.3647 H   0  0  0  0  0  0
    1.7227    0.5909    1.3772 H   0  0  0  0  0  0
   -0.9476    3.2043    0.2811 H   0  0  0  0  0  0
    0.5921    2.5882    0.7981 H   0  0  0  0  0  0
    0.9924    3.8527   -1.2450 H   0  0  0  0  0  0
    1.2494    2.1826   -1.5971 H   0  0  0  0  0  0
   -1.1037    2.0964   -2.5838 H   0  0  0  0  0  0
    3.0141   -3.6681    0.9315 H   0  0  0  0  0  0
    5.3471   -4.2495    1.2128 H   0  0  0  0  0  0
    6.3793   -0.0598    1.0297 H   0  0  0  0  0  0
    4.0598    0.4976    0.7819 H   0  0  0  0  0  0
    8.1032   -0.6093    1.9970 H   0  0  0  0  0  0
    8.1767   -1.9557    3.1216 H   0  0  0  0  0  0
   10.0957   -1.4585    0.8230 H   0  0  0  0  0  0
   10.4260   -1.2291    2.5225 H   0  0  0  0  0  0
    9.6486   -3.8014   -0.0710 H   0  0  0  0  0  0
    9.6919   -5.1694    1.0155 H   0  0  0  0  0  0
    7.7111   -4.3547    2.2024 H   0  0  0  0  0  0
    7.3654   -4.4755    0.4652 H   0  0  0  0  0  0
   11.1989   -2.3443    4.3979 H   0  0  0  0  0  0
   12.4146   -2.1757    3.1149 H   0  0  0  0  0  0
   12.5526   -3.4692    4.3020 H   0  0  0  0  0  0
   -2.2255    3.9061   -1.5753 H   0  0  0  0  0  0
   -0.9942    5.0550   -1.9626 H   0  0  0  0  0  0
   -2.6399    3.7539   -4.1749 H   0  0  0  0  0  0
   -3.2564    5.0809   -3.2415 H   0  0  0  0  0  0
    1.1210    2.3805   -3.8404 H   0  0  0  0  0  0
   -0.3752    2.5436   -4.6691 H   0  0  0  0  0  0
   -2.3241    6.0583   -5.1950 H   0  0  0  0  0  0
   -1.2984    6.4992   -3.8687 H   0  0  0  0  0  0
    1.0511    5.0333   -3.6355 H   0  0  0  0  0  0
    1.5538    4.2471   -5.0995 H   0  0  0  0  0  0
   -0.7364    4.4737   -6.0679 H   0  0  0  0  0  0
    0.0730    5.9787   -5.7773 H   0  0  0  0  0  0
  1  2  2  0  0  0
  1  5  1  0  0  0
  2 12  1  0  0  0
  2  3  1  0  0  0
  3  4  2  0  0  0
  4  6  1  0  0  0
  4 38  1  0  0  0
  5  9  1  0  0  0
  5  6  2  0  0  0
  6  7  1  0  0  0
  7  8  2  0  0  0
  7 39  1  0  0  0
  8  9  1  0  0  0
  8 10  1  0  0  0
  9 14  1  0  0  0
 10 11  1  0  0  0
 10 40  1  0  0  0
 10 41  1  0  0  0
 11 17  1  0  0  0
 12 13  3  0  0  0
 14 15  1  0  0  0
 14 42  1  0  0  0
 14 43  1  0  0  0
 15 16  1  0  0  0
 15 44  1  0  0  0
 15 45  1  0  0  0
 16 32  1  0  0  0
 16 34  1  0  0  0
 16 46  1  0  0  0
 17 18  2  0  0  0
 17 22  1  0  0  0
 18 19  1  0  0  0
 18 47  1  0  0  0
 19 20  2  0  0  0
 19 48  1  0  0  0
 20 21  1  0  0  0
 20 23  1  0  0  0
 21 22  2  0  0  0
 21 49  1  0  0  0
 22 50  1  0  0  0
 23 24  1  0  0  0
 23 28  1  0  0  0
 24 25  1  0  0  0
 24 51  1  0  0  0
 24 52  1  0  0  0
 25 26  1  0  0  0
 25 53  1  0  0  0
 25 54  1  0  0  0
 26 27  1  0  0  0
 26 29  1  0  0  0
 27 28  1  0  0  0
 27 55  1  0  0  0
 27 56  1  0  0  0
 28 57  1  0  0  0
 28 58  1  0  0  0
 29 30  1  0  0  0
 29 31  2  0  0  0
 30 59  1  0  0  0
 30 60  1  0  0  0
 30 61  1  0  0  0
 32 33  1  0  0  0
 32 62  1  0  0  0
 32 63  1  0  0  0
 33 35  1  0  0  0
 33 64  1  0  0  0
 33 65  1  0  0  0
 34 36  1  0  0  0
 34 66  1  0  0  0
 34 67  1  0  0  0
 35 37  1  0  0  0
 35 68  1  0  0  0
 35 69  1  0  0  0
 36 37  1  0  0  0
 36 70  1  0  0  0
 36 71  1  0  0  0
 37 72  1  0  0  0
 37 73  1  0  0  0
M  END
> <chembl_id>
CHEMBL461438

> <chembl_pref_name>
None

> <s_m_source_file>
sdf/inactives_sanitized.sdf

> <i_m_source_file_index>
333

> <i_lp_mmshare_version>
49012

> <i_m_ct_stereo_status>
1

> <i_f3d_flags>
0

> <s_epik_input>
W0NIMl0xW0NIMl1bQ0gyXVtDSDJdW0NIMl1bQ0gyXVtDSF0xW0NIMl1bQ0gyXW4yYyhbY0hdYyhjMjMpW2NIXW5jKG4zKUMjTilbQ0gyXU9jNFtjSF1bY0hdYyhbY0hdW2NIXTQpTjVbQ0gyXVtDSDJdTihbQ0gyXVtDSDJdNSlDKD1PKVtDSDNd

> <s_epik_cmdline>
J2VwaWtfcHl0aG9uJywgJy1waHQnLCAnMC41JywgJy1waCcsICc3LjUnLCAnLW50JywgJy1tYScsICcyMDAnLCAnLWltYWUnLCAnPGluZmlsZS5tYWU+JywgJy1vbWFlJywgJzxvdXRmaWxlLm1hZT4n

> <r_lp_tautomer_probability>
1

> <r_epik_Ionization_Penalty>
  0.0029

> <r_epik_Ionization_Penalty_Charging>
  0.0000

> <r_epik_Ionization_Penalty_Neutral>
  0.0029

> <r_epik_State_Penalty>
 -0.0000

> <r_epik_Charging_Adjusted_Penalty>
0

> <i_epik_Tot_Q>
0

> <i_epik_Tot_abs_Q>
0

> <s_lp_Force_Field>
OPLS3e

> <r_lp_Energy>
71.238652

> <b_lp_Chiralities_Consistent>
1

> <s_lp_Variant>
sdf/inactives_sanitized.sdf:333-1

$$$$
sdf/inactives_sanitized.sdf:334
                    3D
 Schrodinger Suite 2020-1.
 70 74  0  0  1  0            999 V2000
   -3.6316    1.1682    0.4519 N   0  0  0  0  0  0
   -4.7233    0.3573    0.4257 C   0  0  0  0  0  0
   -4.7732   -0.9655    0.1228 N   0  0  0  0  0  0
   -3.5938   -1.5602   -0.1928 C   0  0  0  0  0  0
   -2.4887    0.5413    0.1280 C   0  0  0  0  0  0
   -2.3905   -0.8353   -0.2034 C   0  0  0  0  0  0
   -1.0162   -1.1005   -0.4634 C   0  0  0  0  0  0
   -0.3108    0.0825   -0.2836 C   0  0  0  0  0  0
   -1.2133    1.0893    0.0545 N   0  0  0  0  0  0
    1.1813    0.3397   -0.4172 C   0  0  0  0  0  0
    1.8606   -0.8961   -0.6295 O   0  0  0  0  0  0
   -5.9901    0.9849    0.7619 C   0  0  0  0  0  0
   -6.9990    1.4852    1.0297 N   0  0  0  0  0  0
   -0.8902    2.5002    0.3211 C   0  0  0  0  0  0
   -1.5430    3.4620   -0.7018 C   0  0  0  0  0  0
   -1.1451    3.2407   -2.1825 C   0  0  0  0  0  0
    3.2419   -0.9197   -0.6272 C   0  0  0  0  0  0
    3.8498   -2.1731   -0.7186 C   0  0  0  0  0  0
    5.2393   -2.3004   -0.7094 C   0  0  0  0  0  0
    6.0522   -1.1640   -0.6111 C   0  0  0  0  0  0
    5.4469    0.0964   -0.5312 C   0  0  0  0  0  0
    4.0576    0.2199   -0.5401 C   0  0  0  0  0  0
    7.4308   -1.2929   -0.5889 N   0  0  0  0  0  0
    8.1875   -0.8449   -1.7659 C   0  0  0  0  0  0
    9.6808   -1.2455   -1.7747 C   0  0  0  0  0  0
   10.2823   -0.8717   -0.4866 N   0  0  0  0  0  0
    9.6160   -1.4196    0.7032 C   0  0  0  0  0  0
    8.1255   -1.0137    0.6754 C   0  0  0  0  0  0
   11.2730    0.0524   -0.3684 C   0  0  0  0  0  0
   11.9998    0.5438   -1.6248 C   0  0  0  0  0  0
   11.6836    0.4623    0.7187 O   0  0  0  0  0  0
   -2.0908    4.0060   -3.1375 C   0  0  0  0  0  0
   -1.7521    3.7160   -4.6142 C   0  0  0  0  0  0
   -0.2763    4.0412   -4.9325 C   0  0  0  0  0  0
    0.7024    3.3842   -3.9341 C   0  0  0  0  0  0
    0.3073    3.6879   -2.4749 C   0  0  0  0  0  0
    5.7881   -3.5363   -0.7928 F   0  0  0  0  0  0
   -3.6218   -2.6132   -0.4309 H   0  0  0  0  0  0
   -0.5738   -2.0462   -0.7406 H   0  0  0  0  0  0
    1.3617    0.9960   -1.2685 H   0  0  0  0  0  0
    1.5565    0.8143    0.4913 H   0  0  0  0  0  0
   -1.2280    2.7329    1.3320 H   0  0  0  0  0  0
    0.1896    2.6374    0.3223 H   0  0  0  0  0  0
   -2.6270    3.3977   -0.6049 H   0  0  0  0  0  0
   -1.3023    4.4873   -0.4170 H   0  0  0  0  0  0
   -1.2326    2.1794   -2.4219 H   0  0  0  0  0  0
    3.2363   -3.0595   -0.7901 H   0  0  0  0  0  0
    6.0543    0.9872   -0.4580 H   0  0  0  0  0  0
    3.6320    1.2100   -0.4773 H   0  0  0  0  0  0
    7.7090   -1.2118   -2.6752 H   0  0  0  0  0  0
    8.1489    0.2461   -1.7585 H   0  0  0  0  0  0
    9.7600   -2.3268   -1.8946 H   0  0  0  0  0  0
   10.1718   -0.7998   -2.6387 H   0  0  0  0  0  0
    9.6926   -2.5071    0.6768 H   0  0  0  0  0  0
   10.0727   -1.0976    1.6402 H   0  0  0  0  0  0
    8.0858    0.0682    0.8155 H   0  0  0  0  0  0
    7.6026   -1.4982    1.5013 H   0  0  0  0  0  0
   11.3369    1.1564   -2.2365 H   0  0  0  0  0  0
   12.3584   -0.2960   -2.2206 H   0  0  0  0  0  0
   12.8643    1.1523   -1.3565 H   0  0  0  0  0  0
   -3.1263    3.7266   -2.9371 H   0  0  0  0  0  0
   -2.0487    5.0772   -2.9326 H   0  0  0  0  0  0
   -1.9489    2.6654   -4.8331 H   0  0  0  0  0  0
   -2.4090    4.2913   -5.2678 H   0  0  0  0  0  0
   -0.0371    3.7289   -5.9498 H   0  0  0  0  0  0
   -0.1370    5.1231   -4.9084 H   0  0  0  0  0  0
    0.7146    2.3045   -4.0911 H   0  0  0  0  0  0
    1.7182    3.7318   -4.1258 H   0  0  0  0  0  0
    0.4238    4.7509   -2.2569 H   0  0  0  0  0  0
    1.0027    3.1967   -1.7957 H   0  0  0  0  0  0
  1  2  2  0  0  0
  1  5  1  0  0  0
  2 12  1  0  0  0
  2  3  1  0  0  0
  3  4  2  0  0  0
  4  6  1  0  0  0
  4 38  1  0  0  0
  5  9  1  0  0  0
  5  6  2  0  0  0
  6  7  1  0  0  0
  7  8  2  0  0  0
  7 39  1  0  0  0
  8  9  1  0  0  0
  8 10  1  0  0  0
  9 14  1  0  0  0
 10 11  1  0  0  0
 10 40  1  0  0  0
 10 41  1  0  0  0
 11 17  1  0  0  0
 12 13  3  0  0  0
 14 15  1  0  0  0
 14 42  1  0  0  0
 14 43  1  0  0  0
 15 16  1  0  0  0
 15 44  1  0  0  0
 15 45  1  0  0  0
 16 32  1  0  0  0
 16 36  1  0  0  0
 16 46  1  0  0  0
 17 18  2  0  0  0
 17 22  1  0  0  0
 18 19  1  0  0  0
 18 47  1  0  0  0
 19 20  2  0  0  0
 19 37  1  0  0  0
 20 21  1  0  0  0
 20 23  1  0  0  0
 21 22  2  0  0  0
 21 48  1  0  0  0
 22 49  1  0  0  0
 23 24  1  0  0  0
 23 28  1  0  0  0
 24 25  1  0  0  0
 24 50  1  0  0  0
 24 51  1  0  0  0
 25 26  1  0  0  0
 25 52  1  0  0  0
 25 53  1  0  0  0
 26 27  1  0  0  0
 26 29  1  0  0  0
 27 28  1  0  0  0
 27 54  1  0  0  0
 27 55  1  0  0  0
 28 56  1  0  0  0
 28 57  1  0  0  0
 29 30  1  0  0  0
 29 31  2  0  0  0
 30 58  1  0  0  0
 30 59  1  0  0  0
 30 60  1  0  0  0
 32 33  1  0  0  0
 32 61  1  0  0  0
 32 62  1  0  0  0
 33 34  1  0  0  0
 33 63  1  0  0  0
 33 64  1  0  0  0
 34 35  1  0  0  0
 34 65  1  0  0  0
 34 66  1  0  0  0
 35 36  1  0  0  0
 35 67  1  0  0  0
 35 68  1  0  0  0
 36 69  1  0  0  0
 36 70  1  0  0  0
M  END
> <chembl_id>
CHEMBL493919

> <chembl_pref_name>
None

> <s_m_source_file>
sdf/inactives_sanitized.sdf

> <i_m_source_file_index>
334

> <i_lp_mmshare_version>
49012

> <i_m_ct_stereo_status>
1

> <i_f3d_flags>
0

> <s_epik_input>
W0NIMl0xW0NIMl1bQ0gyXVtDSDJdW0NIMl1bQ0hdMVtDSDJdW0NIMl1uMmMoW2NIXWMoYzIzKVtjSF1uYyhuMylDI04pW0NIMl1PYzRbY0hdYyhGKWMoW2NIXVtjSF00KU41W0NIMl1bQ0gyXU4oW0NIMl1bQ0gyXTUpQyg9TylbQ0gzXQ==

> <s_epik_cmdline>
J2VwaWtfcHl0aG9uJywgJy1waHQnLCAnMC41JywgJy1waCcsICc3LjUnLCAnLW50JywgJy1tYScsICcyMDAnLCAnLWltYWUnLCAnPGluZmlsZS5tYWU+JywgJy1vbWFlJywgJzxvdXRmaWxlLm1hZT4n

> <r_lp_tautomer_probability>
1

> <r_epik_Ionization_Penalty>
  0.0001

> <r_epik_Ionization_Penalty_Charging>
  0.0000

> <r_epik_Ionization_Penalty_Neutral>
  0.0001

> <r_epik_State_Penalty>
 -0.0000

> <r_epik_Charging_Adjusted_Penalty>
0

> <i_epik_Tot_Q>
0

> <i_epik_Tot_abs_Q>
0

> <s_lp_Force_Field>
OPLS3e

> <r_lp_Energy>
63.230387

> <b_lp_Chiralities_Consistent>
1

> <s_lp_Variant>
sdf/inactives_sanitized.sdf:334-1

$$$$
sdf/inactives_sanitized.sdf:335
                    3D
 Schrodinger Suite 2020-1.
 78 80  0  0  1  0            999 V2000
   -4.3946    3.3524   -6.2861 C   0  0  0  0  0  0
   -4.3938    2.2609   -7.1530 C   0  0  0  0  0  0
   -3.8662    1.0391   -6.7388 C   0  0  0  0  0  0
   -3.3158    0.9194   -5.4664 C   0  0  0  0  0  0
   -3.2835    2.0126   -4.5884 C   0  0  0  0  0  0
   -3.8447    3.2255   -5.0141 C   0  0  0  0  0  0
   -2.6358    1.8956   -3.2443 C   0  0  0  0  0  0
   -2.6259    0.6778   -2.5502 C   0  0  0  0  0  0
   -1.9903    0.5623   -1.3176 C   0  0  0  0  0  0
   -1.3492    1.6679   -0.7497 C   0  0  0  0  0  0
   -1.3579    2.8864   -1.4290 C   0  0  0  0  0  0
   -1.9960    2.9980   -2.6601 C   0  0  0  0  0  0
   -5.0665    2.4303   -8.8028 S   0  0  0  0  0  0
   -6.8829    1.9807   -8.5736 C   0  0  0  0  0  0
   -4.9797    3.8479   -9.1714 O   0  0  0  0  0  0
   -4.4341    1.4082   -9.6445 O   0  0  0  0  0  0
   -0.6584    1.5858    0.6168 C   0  0  2  0  0  0
    0.0246    0.3062    0.8520 N   0  0  1  0  0  0
   -1.6495    1.8556    1.7778 C   0  0  0  0  0  0
   -1.0311    1.8427    2.9605 F   0  0  0  0  0  0
   -2.2219    3.0541    1.6565 F   0  0  0  0  0  0
   -2.6287    0.9501    1.8306 F   0  0  0  0  0  0
    1.4338    0.2083    0.3922 C   0  0  2  0  0  0
    1.4724   -0.2410   -1.0892 C   0  0  0  0  0  0
    2.2074   -0.7840    1.3047 C   0  0  0  0  0  0
    3.7052   -1.0147    0.9743 C   0  0  0  0  0  0
    4.3090   -2.1023    1.8882 C   0  0  0  0  0  0
    4.5289    0.2906    1.0028 C   0  0  0  0  0  0
    0.8221   -1.2217   -1.4574 O   0  0  0  0  0  0
    2.3015    0.4567   -1.8844 N   0  0  0  0  0  0
    2.7284    0.0478   -3.2259 C   0  0  2  0  0  0
    4.2696    0.0138   -3.2520 C   0  0  0  0  0  0
    4.8419   -1.1205   -3.6647 N   0  0  0  0  0  0
    4.9194    1.0075   -2.9272 O   0  0  0  0  0  0
    2.1864    0.9815   -4.3355 C   0  0  0  0  0  0
    0.6531    0.9601   -4.4698 C   0  0  0  0  0  0
    0.1501    1.7213   -5.6880 C   0  0  0  0  0  0
   -0.0511    3.1022   -5.6150 C   0  0  0  0  0  0
   -0.5421    3.7924   -6.7202 C   0  0  0  0  0  0
   -0.8231    3.1010   -7.8968 C   0  0  0  0  0  0
   -0.6112    1.7267   -7.9809 C   0  0  0  0  0  0
   -0.1226    1.0356   -6.8751 C   0  0  0  0  0  0
   -4.8104    4.3001   -6.5949 H   0  0  0  0  0  0
   -3.8626    0.1871   -7.4029 H   0  0  0  0  0  0
   -2.8824   -0.0284   -5.1835 H   0  0  0  0  0  0
   -3.8545    4.0869   -4.3630 H   0  0  0  0  0  0
   -3.1151   -0.1940   -2.9588 H   0  0  0  0  0  0
   -2.0028   -0.3881   -0.8044 H   0  0  0  0  0  0
   -0.8696    3.7517   -1.0048 H   0  0  0  0  0  0
   -1.9654    3.9508   -3.1673 H   0  0  0  0  0  0
   -7.3871    2.0544   -9.5366 H   0  0  0  0  0  0
   -7.3328    2.6744   -7.8640 H   0  0  0  0  0  0
   -6.9508    0.9613   -8.1947 H   0  0  0  0  0  0
    0.0932    2.3761    0.6618 H   0  0  0  0  0  0
   -0.0458    0.0839    1.8350 H   0  0  0  0  0  0
    1.9206    1.1802    0.4949 H   0  0  0  0  0  0
    2.1454   -0.4263    2.3340 H   0  0  0  0  0  0
    1.6874   -1.7447    1.3086 H   0  0  0  0  0  0
    3.7660   -1.4121   -0.0397 H   0  0  0  0  0  0
    5.0432   -1.7033    2.5880 H   0  0  0  0  0  0
    4.8078   -2.8706    1.2969 H   0  0  0  0  0  0
    3.5475   -2.6036    2.4865 H   0  0  0  0  0  0
    4.0160    1.0864    1.5430 H   0  0  0  0  0  0
    4.7144    0.6499   -0.0097 H   0  0  0  0  0  0
    5.5033    0.1615    1.4737 H   0  0  0  0  0  0
    2.7906    1.2531   -1.5022 H   0  0  0  0  0  0
    2.3640   -0.9607   -3.4368 H   0  0  0  0  0  0
    4.2747   -1.9122   -3.9303 H   0  0  0  0  0  0
    5.8478   -1.1914   -3.7117 H   0  0  0  0  0  0
    2.5155    2.0110   -4.1796 H   0  0  0  0  0  0
    2.6126    0.6871   -5.2972 H   0  0  0  0  0  0
    0.2888   -0.0680   -4.5109 H   0  0  0  0  0  0
    0.2007    1.3814   -3.5727 H   0  0  0  0  0  0
    0.1615    3.6376   -4.7012 H   0  0  0  0  0  0
   -0.7092    4.8577   -6.6639 H   0  0  0  0  0  0
   -1.2108    3.6350   -8.7520 H   0  0  0  0  0  0
   -0.8334    1.1990   -8.8969 H   0  0  0  0  0  0
    0.0327   -0.0317   -6.9390 H   0  0  0  0  0  0
  1  6  2  0  0  0
  1  2  1  0  0  0
  1 43  1  0  0  0
  2  3  2  0  0  0
  2 13  1  0  0  0
  3  4  1  0  0  0
  3 44  1  0  0  0
  4  5  2  0  0  0
  4 45  1  0  0  0
  5  6  1  0  0  0
  5  7  1  0  0  0
  6 46  1  0  0  0
  7 12  1  0  0  0
  7  8  2  0  0  0
  8  9  1  0  0  0
  8 47  1  0  0  0
  9 10  2  0  0  0
  9 48  1  0  0  0
 10 11  1  0  0  0
 10 17  1  0  0  0
 11 12  2  0  0  0
 11 49  1  0  0  0
 12 50  1  0  0  0
 13 14  1  0  0  0
 13 15  2  0  0  0
 13 16  2  0  0  0
 14 51  1  0  0  0
 14 52  1  0  0  0
 14 53  1  0  0  0
 17 18  1  0  0  0
 17 19  1  0  0  0
 17 54  1  0  0  0
 18 23  1  0  0  0
 18 55  1  0  0  0
 19 21  1  0  0  0
 19 22  1  0  0  0
 19 20  1  0  0  0
 23 24  1  0  0  0
 23 25  1  0  0  0
 23 56  1  0  0  0
 24 29  2  0  0  0
 24 30  1  0  0  0
 25 26  1  0  0  0
 25 57  1  0  0  0
 25 58  1  0  0  0
 26 27  1  0  0  0
 26 28  1  0  0  0
 26 59  1  0  0  0
 27 60  1  0  0  0
 27 61  1  0  0  0
 27 62  1  0  0  0
 28 63  1  0  0  0
 28 64  1  0  0  0
 28 65  1  0  0  0
 30 31  1  0  0  0
 30 66  1  0  0  0
 31 32  1  0  0  0
 31 35  1  0  0  0
 31 67  1  0  0  0
 32 33  1  0  0  0
 32 34  2  0  0  0
 33 68  1  0  0  0
 33 69  1  0  0  0
 35 36  1  0  0  0
 35 70  1  0  0  0
 35 71  1  0  0  0
 36 37  1  0  0  0
 36 72  1  0  0  0
 36 73  1  0  0  0
 37 38  2  0  0  0
 37 42  1  0  0  0
 38 39  1  0  0  0
 38 74  1  0  0  0
 39 40  2  0  0  0
 39 75  1  0  0  0
 40 41  1  0  0  0
 40 76  1  0  0  0
 41 42  2  0  0  0
 41 77  1  0  0  0
 42 78  1  0  0  0
M  END
> <chembl_id>
CHEMBL249274

> <chembl_pref_name>
None

> <i_m_ct_stereo_status>
1

> <s_m_source_file>
sdf/inactives_sanitized.sdf

> <i_m_source_file_index>
335

> <i_lp_mmshare_version>
49012

> <i_f3d_flags>
0

> <s_epik_input>
W0NIM11TKD1PKSg9TyljMVtjSF1bY0hdYyhbY0hdW2NIXTEpLWMyW2NIXVtjSF1jKFtjSF1bY0hdMilbQ0BASF0oQyhGKShGKUYpW05IXVtDQEBIXShbQ0gyXVtDSF0oW0NIM10pW0NIM10pQyg9TylbTkhdW0NASF0oQyg9TylbTkgyXSlbQ0gyXVtDSDJdYzNbY0hdW2NIXVtjSF1bY0hdW2NIXTM=

> <s_epik_cmdline>
J2VwaWtfcHl0aG9uJywgJy1waHQnLCAnMC41JywgJy1waCcsICc3LjUnLCAnLW50JywgJy1tYScsICcyMDAnLCAnLWltYWUnLCAnPGluZmlsZS5tYWU+JywgJy1vbWFlJywgJzxvdXRmaWxlLm1hZT4n

> <r_lp_tautomer_probability>
1

> <r_epik_Ionization_Penalty>
  0.0004

> <r_epik_Ionization_Penalty_Charging>
  0.0000

> <r_epik_Ionization_Penalty_Neutral>
  0.0004

> <r_epik_State_Penalty>
 -0.0000

> <r_epik_Charging_Adjusted_Penalty>
0

> <i_epik_Tot_Q>
0

> <i_epik_Tot_abs_Q>
0

> <s_lp_Force_Field>
OPLS3e

> <r_lp_Energy>
33.32112

> <b_lp_Chiralities_Consistent>
1

> <s_lp_Variant>
sdf/inactives_sanitized.sdf:335-1

$$$$
sdf/inactives_sanitized.sdf:336
                    3D
 Schrodinger Suite 2020-1.
 78 82  0  0  1  0            999 V2000
   -1.0531   -3.2714    2.9014 C   0  0  0  0  0  0
   -0.5092   -2.6465    1.6095 C   0  0  0  0  0  0
   -1.1376   -1.2724    1.3006 C   0  0  0  0  0  0
   -0.6237   -0.6290   -0.0129 C   0  0  2  0  0  0
    0.8370   -0.4117    0.0122 N   0  0  0  0  0  0
    1.6237    0.0533   -0.9786 C   0  0  0  0  0  0
    1.1870    0.4211   -2.0710 O   0  0  0  0  0  0
    3.1229    0.2168   -0.6359 C   0  0  2  0  0  0
    3.5220    1.6850   -0.4578 C   0  0  0  0  0  0
    4.0373    2.1184   -1.8202 C   0  0  2  0  0  0
    4.5855    0.8554   -2.4881 C   0  0  0  0  0  0
    3.9964   -0.2592   -1.7323 N   0  0  0  0  0  0
    4.2442   -1.5808   -1.9578 C   0  0  0  0  0  0
    3.7144   -2.4434   -1.2507 O   0  0  0  0  0  0
    5.1703   -2.0399   -3.1319 C   0  0  0  0  0  0
    5.1170   -3.5376   -3.4331 C   0  0  0  0  0  0
    4.3388   -2.5830   -4.2942 C   0  0  0  0  0  0
    6.4833   -1.2927   -3.3881 C   0  0  0  0  0  0
    6.7210   -0.6368   -4.6020 C   0  0  0  0  0  0
    7.9162    0.0471   -4.8037 C   0  0  0  0  0  0
    8.8719    0.0848   -3.7906 C   0  0  0  0  0  0
   10.3460    0.9477   -4.0367 Cl  0  0  0  0  0  0
    8.6435   -0.5632   -2.5786 C   0  0  0  0  0  0
    7.4514   -1.2537   -2.3793 C   0  0  0  0  0  0
    5.3281    3.5042   -1.6990 S   0  0  0  0  0  0
    4.6598    4.7397   -1.2754 O   0  0  0  0  0  0
    6.4698    2.9963   -0.9283 O   0  0  0  0  0  0
    5.8819    3.7459   -3.3974 C   0  0  0  0  0  0
    7.1950    3.3915   -3.7332 C   0  0  0  0  0  0
    7.6637    3.5561   -5.0355 C   0  0  0  0  0  0
    6.8231    4.0723   -6.0184 C   0  0  0  0  0  0
    5.5143    4.4265   -5.6967 C   0  0  0  0  0  0
    5.0358    4.2679   -4.3939 C   0  0  0  0  0  0
    3.3994    4.7309   -4.0751 Cl  0  0  0  0  0  0
   -1.3737    0.6710   -0.3261 C   0  0  0  0  0  0
   -2.1393    0.7914   -1.2820 O   0  0  0  0  0  0
   -1.1272    1.9085    0.6348 C   0  0  0  0  0  0
   -0.0913    2.5594    0.4837 O   0  0  0  0  0  0
   -2.0764    2.1428    1.5872 N   0  0  0  0  0  0
   -1.8380    3.1693    2.6093 C   0  0  0  0  0  0
   -3.3058    1.3619    1.8235 C   0  0  0  0  0  0
   -4.3942    1.2962    0.7664 C   0  0  0  0  0  0
   -4.6326    2.0697    2.0339 C   0  0  0  0  0  0
   -0.5923   -4.2419    3.0881 H   0  0  0  0  0  0
   -2.1317   -3.4226    2.8453 H   0  0  0  0  0  0
   -0.8481   -2.6370    3.7644 H   0  0  0  0  0  0
    0.5740   -2.5526    1.6961 H   0  0  0  0  0  0
   -0.6948   -3.3291    0.7790 H   0  0  0  0  0  0
   -2.2210   -1.3961    1.2444 H   0  0  0  0  0  0
   -0.9384   -0.6072    2.1432 H   0  0  0  0  0  0
   -0.8165   -1.3484   -0.8120 H   0  0  0  0  0  0
    1.2878   -0.7112    0.8644 H   0  0  0  0  0  0
    3.2963   -0.3675    0.2701 H   0  0  0  0  0  0
    2.7369    2.3243   -0.0497 H   0  0  0  0  0  0
    4.3270    1.7248    0.2777 H   0  0  0  0  0  0
    3.2158    2.5292   -2.4061 H   0  0  0  0  0  0
    4.3595    0.8466   -3.5550 H   0  0  0  0  0  0
    5.6642    0.8595   -2.3391 H   0  0  0  0  0  0
    6.0082   -4.0092   -3.8482 H   0  0  0  0  0  0
    4.5708   -4.2265   -2.7875 H   0  0  0  0  0  0
    4.6708   -2.4372   -5.3216 H   0  0  0  0  0  0
    3.2490   -2.5880   -4.2290 H   0  0  0  0  0  0
    5.9820   -0.6377   -5.3888 H   0  0  0  0  0  0
    8.0941    0.5548   -5.7405 H   0  0  0  0  0  0
    9.3849   -0.5305   -1.7937 H   0  0  0  0  0  0
    7.2766   -1.7529   -1.4372 H   0  0  0  0  0  0
    7.8651    2.9838   -2.9908 H   0  0  0  0  0  0
    8.6779    3.2789   -5.2827 H   0  0  0  0  0  0
    7.1849    4.1986   -7.0282 H   0  0  0  0  0  0
    4.8683    4.8275   -6.4643 H   0  0  0  0  0  0
   -0.9048    3.7166    2.4689 H   0  0  0  0  0  0
   -1.8025    2.7097    3.5975 H   0  0  0  0  0  0
   -2.6427    3.9041    2.6101 H   0  0  0  0  0  0
   -3.1281    0.4681    2.4216 H   0  0  0  0  0  0
   -4.2782    1.8559   -0.1618 H   0  0  0  0  0  0
   -4.9065    0.3461    0.6159 H   0  0  0  0  0  0
   -4.6800    3.1573    1.9775 H   0  0  0  0  0  0
   -5.3172    1.6660    2.7798 H   0  0  0  0  0  0
  1  2  1  0  0  0
  1 44  1  0  0  0
  1 45  1  0  0  0
  1 46  1  0  0  0
  2  3  1  0  0  0
  2 47  1  0  0  0
  2 48  1  0  0  0
  3  4  1  0  0  0
  3 49  1  0  0  0
  3 50  1  0  0  0
  4  5  1  0  0  0
  4 35  1  0  0  0
  4 51  1  0  0  0
  5  6  1  0  0  0
  5 52  1  0  0  0
  6  7  2  0  0  0
  6  8  1  0  0  0
  8  9  1  0  0  0
  8 12  1  0  0  0
  8 53  1  0  0  0
  9 10  1  0  0  0
  9 54  1  0  0  0
  9 55  1  0  0  0
 10 11  1  0  0  0
 10 25  1  0  0  0
 10 56  1  0  0  0
 11 12  1  0  0  0
 11 57  1  0  0  0
 11 58  1  0  0  0
 12 13  1  0  0  0
 13 14  2  0  0  0
 13 15  1  0  0  0
 15 16  1  0  0  0
 15 17  1  0  0  0
 15 18  1  0  0  0
 16 17  1  0  0  0
 16 59  1  0  0  0
 16 60  1  0  0  0
 17 61  1  0  0  0
 17 62  1  0  0  0
 18 19  2  0  0  0
 18 24  1  0  0  0
 19 20  1  0  0  0
 19 63  1  0  0  0
 20 21  2  0  0  0
 20 64  1  0  0  0
 21 22  1  0  0  0
 21 23  1  0  0  0
 23 24  2  0  0  0
 23 65  1  0  0  0
 24 66  1  0  0  0
 25 26  2  0  0  0
 25 27  2  0  0  0
 25 28  1  0  0  0
 28 29  2  0  0  0
 28 33  1  0  0  0
 29 30  1  0  0  0
 29 67  1  0  0  0
 30 31  2  0  0  0
 30 68  1  0  0  0
 31 32  1  0  0  0
 31 69  1  0  0  0
 32 33  2  0  0  0
 32 70  1  0  0  0
 33 34  1  0  0  0
 35 36  2  0  0  0
 35 37  1  0  0  0
 37 38  2  0  0  0
 37 39  1  0  0  0
 39 40  1  0  0  0
 39 41  1  0  0  0
 40 71  1  0  0  0
 40 72  1  0  0  0
 40 73  1  0  0  0
 41 42  1  0  0  0
 41 43  1  0  0  0
 41 74  1  0  0  0
 42 43  1  0  0  0
 42 75  1  0  0  0
 42 76  1  0  0  0
 43 77  1  0  0  0
 43 78  1  0  0  0
M  END
> <chembl_id>
CHEMBL3649408

> <chembl_pref_name>
None

> <i_m_ct_stereo_status>
1

> <s_m_source_file>
sdf/inactives_sanitized.sdf

> <i_m_source_file_index>
336

> <i_lp_mmshare_version>
49012

> <i_f3d_flags>
0

> <s_epik_input>
W0NIMl0xW0NIMl1bQ0hdMU4oW0NIM10pQyg9TylDKD1PKVtDQEhdKFtDSDJdW0NIMl1bQ0gzXSlbTkhdQyg9TylbQ0BASF0yW0NIMl1bQ0BASF0oUyg9TykoPU8pYzNbY0hdW2NIXVtjSF1bY0hdYzNDbClbQ0gyXU4yQyg9TylDNChbQ0gyXVtDSDJdNCljNVtjSF1bY0hdYyhDbClbY0hdW2NIXTU=

> <s_epik_cmdline>
J2VwaWtfcHl0aG9uJywgJy1waHQnLCAnMC41JywgJy1waCcsICc3LjUnLCAnLW50JywgJy1tYScsICcyMDAnLCAnLWltYWUnLCAnPGluZmlsZS5tYWU+JywgJy1vbWFlJywgJzxvdXRmaWxlLm1hZT4n

> <r_lp_tautomer_probability>
1

> <r_epik_Ionization_Penalty>
  0.0000

> <r_epik_Ionization_Penalty_Charging>
  0.0000

> <r_epik_Ionization_Penalty_Neutral>
  0.0000

> <r_epik_State_Penalty>
 -0.0000

> <r_epik_Charging_Adjusted_Penalty>
0

> <i_epik_Tot_Q>
0

> <i_epik_Tot_abs_Q>
0

> <s_lp_Force_Field>
OPLS3e

> <r_lp_Energy>
62.233436

> <b_lp_Chiralities_Consistent>
1

> <s_lp_Variant>
sdf/inactives_sanitized.sdf:336-1

$$$$
sdf/inactives_sanitized.sdf:337
                    3D
 Schrodinger Suite 2020-1.
 34 34  0  0  1  0            999 V2000
   -0.0566   -0.1579   -0.2733 C   0  0  0  0  0  0
   -0.5648   -1.3896    0.0544 N   0  0  0  0  0  0
    1.8561    1.5218   -0.1841 N   0  0  2  0  0  0
    1.4850    0.0986   -0.2061 C   0  0  2  0  0  0
    1.4356    2.3449    0.7966 C   0  0  0  0  0  0
    1.1054    3.0239    1.6735 N   0  0  0  0  0  0
   -2.0422   -1.6971    0.0883 C   0  0  0  0  0  0
   -0.7843    0.7768   -0.6159 O   0  0  0  0  0  0
    1.9652    2.0011   -1.5567 C   0  0  0  0  0  0
    0.3384   -2.5463    0.2250 C   0  0  0  0  0  0
    2.2276   -0.4085   -1.4665 C   0  0  0  0  0  0
    2.7142    0.8393   -2.2016 C   0  0  0  0  0  0
   -2.8385   -0.6717    0.9499 C   0  0  0  0  0  0
   -2.3774   -3.0890    0.7055 C   0  0  0  0  0  0
   -2.6140   -1.6963   -1.3533 C   0  0  0  0  0  0
    1.8655   -0.3603    0.7076 H   0  0  0  0  0  0
    0.9736    2.1520   -1.9862 H   0  0  0  0  0  0
    2.5352    2.9300   -1.5990 H   0  0  0  0  0  0
    1.4000   -2.3357    0.1218 H   0  0  0  0  0  0
    0.1074   -3.3078   -0.5202 H   0  0  0  0  0  0
    0.2061   -2.9873    1.2128 H   0  0  0  0  0  0
    3.0689   -1.0472   -1.1932 H   0  0  0  0  0  0
    1.5884   -1.0034   -2.1223 H   0  0  0  0  0  0
    3.7872    0.9615   -2.0414 H   0  0  0  0  0  0
    2.5649    0.7995   -3.2812 H   0  0  0  0  0  0
   -3.8716   -0.9869    1.1042 H   0  0  0  0  0  0
   -2.9031    0.3166    0.4973 H   0  0  0  0  0  0
   -2.3899   -0.5520    1.9370 H   0  0  0  0  0  0
   -2.0066   -3.1770    1.7278 H   0  0  0  0  0  0
   -1.9587   -3.9130    0.1268 H   0  0  0  0  0  0
   -3.4537   -3.2658    0.7455 H   0  0  0  0  0  0
   -3.6728   -1.9595   -1.3672 H   0  0  0  0  0  0
   -2.0929   -2.4157   -1.9865 H   0  0  0  0  0  0
   -2.5276   -0.7219   -1.8341 H   0  0  0  0  0  0
  1  2  1  0  0  0
  1  4  1  0  0  0
  1  8  2  0  0  0
  2  7  1  0  0  0
  2 10  1  0  0  0
  3  4  1  0  0  0
  3  5  1  0  0  0
  3  9  1  0  0  0
  4 11  1  0  0  0
  4 16  1  0  0  0
  5  6  3  0  0  0
  7 13  1  0  0  0
  7 14  1  0  0  0
  7 15  1  0  0  0
  9 12  1  0  0  0
  9 17  1  0  0  0
  9 18  1  0  0  0
 10 19  1  0  0  0
 10 20  1  0  0  0
 10 21  1  0  0  0
 11 12  1  0  0  0
 11 22  1  0  0  0
 11 23  1  0  0  0
 12 24  1  0  0  0
 12 25  1  0  0  0
 13 26  1  0  0  0
 13 27  1  0  0  0
 13 28  1  0  0  0
 14 29  1  0  0  0
 14 30  1  0  0  0
 14 31  1  0  0  0
 15 32  1  0  0  0
 15 33  1  0  0  0
 15 34  1  0  0  0
M  END
> <chembl_id>
CHEMBL369564

> <chembl_pref_name>
None

> <i_m_ct_stereo_status>
1

> <s_m_source_file>
sdf/inactives_sanitized.sdf

> <i_m_source_file_index>
337

> <i_lp_mmshare_version>
49012

> <i_f3d_flags>
0

> <s_epik_input>
W0NIM11DKFtDSDNdKShbQ0gzXSlOKFtDSDNdKUMoPU8pW0NASF0oTjFDI04pW0NIMl1bQ0gyXVtDSDJdMQ==

> <s_epik_cmdline>
J2VwaWtfcHl0aG9uJywgJy1waHQnLCAnMC41JywgJy1waCcsICc3LjUnLCAnLW50JywgJy1tYScsICcyMDAnLCAnLWltYWUnLCAnPGluZmlsZS5tYWU+JywgJy1vbWFlJywgJzxvdXRmaWxlLm1hZT4n

> <r_lp_tautomer_probability>
1

> <r_epik_Ionization_Penalty>
  0.0000

> <r_epik_Ionization_Penalty_Charging>
  0.0000

> <r_epik_Ionization_Penalty_Neutral>
  0.0000

> <r_epik_State_Penalty>
 -0.0000

> <r_epik_Charging_Adjusted_Penalty>
0

> <i_epik_Tot_Q>
0

> <i_epik_Tot_abs_Q>
0

> <s_lp_Force_Field>
OPLS3e

> <r_lp_Energy>
31.235948

> <b_lp_Chiralities_Consistent>
1

> <s_lp_Variant>
sdf/inactives_sanitized.sdf:337-1

$$$$
sdf/inactives_sanitized.sdf:338
                    3D
 Schrodinger Suite 2020-1.
 50 53  0  0  1  0            999 V2000
   -0.6319    2.6485   -0.3268 N   0  0  0  0  0  0
   -1.7692    3.3948   -0.3078 C   0  0  0  0  0  0
   -3.0510    2.9611   -0.1911 N   0  0  0  0  0  0
   -3.2303    1.6196   -0.0762 C   0  0  0  0  0  0
   -0.8575    1.3296   -0.2130 C   0  0  0  0  0  0
   -2.1393    0.7347   -0.0792 C   0  0  0  0  0  0
   -1.9341   -0.6719    0.0264 C   0  0  0  0  0  0
   -0.5687   -0.9086   -0.0468 C   0  0  0  0  0  0
    0.0843    0.3110   -0.2005 N   0  0  0  0  0  0
   -1.5895    4.8319   -0.4268 C   0  0  0  0  0  0
   -1.4459    5.9766   -0.5214 N   0  0  0  0  0  0
    0.1752   -2.2342    0.0357 C   0  0  0  0  0  0
    0.7222   -2.7208   -1.3030 C   0  0  0  0  0  0
    2.0708   -3.0708   -1.4192 C   0  0  0  0  0  0
    2.5725   -3.5186   -2.6383 C   0  0  0  0  0  0
    1.7233   -3.6250   -3.7384 C   0  0  0  0  0  0
    0.3754   -3.2882   -3.6274 C   0  0  0  0  0  0
   -0.1257   -2.8379   -2.4091 C   0  0  0  0  0  0
    2.3457   -4.1805   -5.2493 Cl  0  0  0  0  0  0
    1.5328    0.5147   -0.2700 C   0  0  0  0  0  0
    2.1094    0.7993    1.1325 C   0  0  0  0  0  0
    3.6535    0.8679    1.1866 C   0  0  0  0  0  0
    4.1496    1.0036    2.6453 C   0  0  0  0  0  0
    5.6894    0.9759    2.7245 C   0  0  0  0  0  0
    6.3217    2.0672    1.8341 C   0  0  0  0  0  0
    5.7816    2.0333    0.3883 C   0  0  0  0  0  0
    4.2392    2.0377    0.3575 C   0  0  0  0  0  0
   -4.2459    1.2654    0.0213 H   0  0  0  0  0  0
   -2.6867   -1.4372    0.1465 H   0  0  0  0  0  0
   -0.5125   -3.0030    0.3904 H   0  0  0  0  0  0
    0.9701   -2.1875    0.7816 H   0  0  0  0  0  0
    2.7337   -2.9907   -0.5698 H   0  0  0  0  0  0
    3.6163   -3.7823   -2.7270 H   0  0  0  0  0  0
   -0.2812   -3.3753   -4.4809 H   0  0  0  0  0  0
   -1.1713   -2.5789   -2.3269 H   0  0  0  0  0  0
    2.0048   -0.3610   -0.7116 H   0  0  0  0  0  0
    1.7342    1.3374   -0.9567 H   0  0  0  0  0  0
    1.6883    1.7296    1.5183 H   0  0  0  0  0  0
    1.7748    0.0142    1.8132 H   0  0  0  0  0  0
    4.0569   -0.0644    0.7858 H   0  0  0  0  0  0
    3.7557    1.9177    3.0934 H   0  0  0  0  0  0
    3.7373    0.1971    3.2534 H   0  0  0  0  0  0
    6.0116    1.1070    3.7581 H   0  0  0  0  0  0
    6.0530   -0.0047    2.4135 H   0  0  0  0  0  0
    6.1161    3.0467    2.2689 H   0  0  0  0  0  0
    7.4072    1.9607    1.8286 H   0  0  0  0  0  0
    6.1687    2.8846   -0.1729 H   0  0  0  0  0  0
    6.1529    1.1410   -0.1181 H   0  0  0  0  0  0
    3.8991    1.9815   -0.6763 H   0  0  0  0  0  0
    3.8498    2.9884    0.7258 H   0  0  0  0  0  0
  1  2  2  0  0  0
  1  5  1  0  0  0
  2  3  1  0  0  0
  2 10  1  0  0  0
  3  4  2  0  0  0
  4  6  1  0  0  0
  4 28  1  0  0  0
  5  9  1  0  0  0
  5  6  2  0  0  0
  6  7  1  0  0  0
  7  8  2  0  0  0
  7 29  1  0  0  0
  8  9  1  0  0  0
  8 12  1  0  0  0
  9 20  1  0  0  0
 10 11  3  0  0  0
 12 13  1  0  0  0
 12 30  1  0  0  0
 12 31  1  0  0  0
 13 14  2  0  0  0
 13 18  1  0  0  0
 14 15  1  0  0  0
 14 32  1  0  0  0
 15 16  2  0  0  0
 15 33  1  0  0  0
 16 17  1  0  0  0
 16 19  1  0  0  0
 17 18  2  0  0  0
 17 34  1  0  0  0
 18 35  1  0  0  0
 20 21  1  0  0  0
 20 36  1  0  0  0
 20 37  1  0  0  0
 21 22  1  0  0  0
 21 38  1  0  0  0
 21 39  1  0  0  0
 22 23  1  0  0  0
 22 27  1  0  0  0
 22 40  1  0  0  0
 23 24  1  0  0  0
 23 41  1  0  0  0
 23 42  1  0  0  0
 24 25  1  0  0  0
 24 43  1  0  0  0
 24 44  1  0  0  0
 25 26  1  0  0  0
 25 45  1  0  0  0
 25 46  1  0  0  0
 26 27  1  0  0  0
 26 47  1  0  0  0
 26 48  1  0  0  0
 27 49  1  0  0  0
 27 50  1  0  0  0
M  END
> <chembl_id>
CHEMBL524045

> <chembl_pref_name>
None

> <s_m_source_file>
sdf/inactives_sanitized.sdf

> <i_m_source_file_index>
338

> <i_lp_mmshare_version>
49012

> <i_m_ct_stereo_status>
1

> <i_f3d_flags>
0

> <s_epik_input>
TiNDYyhuMSluW2NIXWMoYzEyKVtjSF1jKFtDSDJdYzNbY0hdW2NIXWMoQ2wpW2NIXVtjSF0zKW4yW0NIMl1bQ0gyXVtDSF00W0NIMl1bQ0gyXVtDSDJdW0NIMl1bQ0gyXTQ=

> <s_epik_cmdline>
J2VwaWtfcHl0aG9uJywgJy1waHQnLCAnMC41JywgJy1waCcsICc3LjUnLCAnLW50JywgJy1tYScsICcyMDAnLCAnLWltYWUnLCAnPGluZmlsZS5tYWU+JywgJy1vbWFlJywgJzxvdXRmaWxlLm1hZT4n

> <r_lp_tautomer_probability>
1

> <r_epik_Ionization_Penalty>
  0.0000

> <r_epik_Ionization_Penalty_Charging>
  0.0000

> <r_epik_Ionization_Penalty_Neutral>
  0.0000

> <r_epik_State_Penalty>
 -0.0000

> <r_epik_Charging_Adjusted_Penalty>
0

> <i_epik_Tot_Q>
0

> <i_epik_Tot_abs_Q>
0

> <s_lp_Force_Field>
OPLS3e

> <r_lp_Energy>
35.387187

> <b_lp_Chiralities_Consistent>
1

> <s_lp_Variant>
sdf/inactives_sanitized.sdf:338-1

$$$$
sdf/inactives_sanitized.sdf:339
                    3D
 Schrodinger Suite 2020-1.
 29 30  0  0  1  0            999 V2000
   -0.5630    1.1317   -0.0555 N   0  0  0  0  0  0
   -0.0096   -0.1025    0.0813 C   0  0  0  0  0  0
   -0.7150   -1.2687    0.1355 N   0  0  0  0  0  0
   -2.0674   -1.1714    0.0418 C   0  0  0  0  0  0
   -2.7244    0.0544   -0.0997 C   0  0  0  0  0  0
   -1.9179    1.1932   -0.1435 C   0  0  0  0  0  0
   -2.8014   -2.4249    0.0964 C   0  0  0  0  0  0
   -3.3867   -3.4224    0.1398 N   0  0  0  0  0  0
    1.3920   -0.1242    0.1727 N   0  0  0  0  0  0
    2.1671   -1.3637    0.0980 C   0  0  0  0  0  0
    3.5184   -1.1473    0.8155 C   0  0  0  0  0  0
    4.4339   -2.3804    0.6795 C   0  0  0  0  0  0
    4.6312   -2.7906   -0.7942 C   0  0  0  0  0  0
    3.2875   -2.9825   -1.5266 C   0  0  0  0  0  0
    2.3747   -1.7476   -1.3865 C   0  0  0  0  0  0
   -3.8004    0.1276   -0.1727 H   0  0  0  0  0  0
   -2.3526    2.1762   -0.2506 H   0  0  0  0  0  0
    1.8753    0.7374   -0.0368 H   0  0  0  0  0  0
    1.6138   -2.1643    0.5920 H   0  0  0  0  0  0
    4.0294   -0.2731    0.4070 H   0  0  0  0  0  0
    3.3519   -0.9369    1.8732 H   0  0  0  0  0  0
    5.4012   -2.1779    1.1409 H   0  0  0  0  0  0
    4.0022   -3.2159    1.2330 H   0  0  0  0  0  0
    5.2162   -2.0252   -1.3068 H   0  0  0  0  0  0
    5.2185   -3.7080   -0.8493 H   0  0  0  0  0  0
    3.4664   -3.1954   -2.5812 H   0  0  0  0  0  0
    2.7768   -3.8580   -1.1223 H   0  0  0  0  0  0
    1.4141   -1.9562   -1.8602 H   0  0  0  0  0  0
    2.8111   -0.9118   -1.9371 H   0  0  0  0  0  0
  1  6  2  0  0  0
  1  2  1  0  0  0
  2  9  1  0  0  0
  2  3  2  0  0  0
  3  4  1  0  0  0
  4  5  2  0  0  0
  4  7  1  0  0  0
  5  6  1  0  0  0
  5 16  1  0  0  0
  6 17  1  0  0  0
  7  8  3  0  0  0
  9 10  1  0  0  0
  9 18  1  0  0  0
 10 11  1  0  0  0
 10 15  1  0  0  0
 10 19  1  0  0  0
 11 12  1  0  0  0
 11 20  1  0  0  0
 11 21  1  0  0  0
 12 13  1  0  0  0
 12 22  1  0  0  0
 12 23  1  0  0  0
 13 14  1  0  0  0
 13 24  1  0  0  0
 13 25  1  0  0  0
 14 15  1  0  0  0
 14 26  1  0  0  0
 14 27  1  0  0  0
 15 28  1  0  0  0
 15 29  1  0  0  0
M  END
> <chembl_id>
CHEMBL221804

> <chembl_pref_name>
None

> <s_m_source_file>
sdf/inactives_sanitized.sdf

> <i_m_source_file_index>
339

> <i_lp_mmshare_version>
49012

> <i_m_ct_stereo_status>
1

> <i_f3d_flags>
0

> <s_epik_input>
TiNDYyhuMSlbY0hdW2NIXW5jMVtOSF1bQ0hdMltDSDJdW0NIMl1bQ0gyXVtDSDJdW0NIMl0y

> <s_epik_cmdline>
J2VwaWtfcHl0aG9uJywgJy1waHQnLCAnMC41JywgJy1waCcsICc3LjUnLCAnLW50JywgJy1tYScsICcyMDAnLCAnLWltYWUnLCAnPGluZmlsZS5tYWU+JywgJy1vbWFlJywgJzxvdXRmaWxlLm1hZT4n

> <r_lp_tautomer_probability>
1

> <r_epik_Ionization_Penalty>
  0.0000

> <r_epik_Ionization_Penalty_Charging>
  0.0000

> <r_epik_Ionization_Penalty_Neutral>
  0.0000

> <r_epik_State_Penalty>
 -0.0000

> <r_epik_Charging_Adjusted_Penalty>
0

> <i_epik_Tot_Q>
0

> <i_epik_Tot_abs_Q>
0

> <s_lp_Force_Field>
OPLS3e

> <r_lp_Energy>
24.596037

> <b_lp_Chiralities_Consistent>
1

> <s_lp_Variant>
sdf/inactives_sanitized.sdf:339-1

$$$$
sdf/inactives_sanitized.sdf:340
                    3D
 Schrodinger Suite 2020-1.
 66 69  0  0  1  0            999 V2000
   -2.2054    0.2983   -0.5077 C   0  0  0  0  0  0
   -2.4047    0.5845   -2.0321 C   0  0  0  0  0  0
   -3.8836    0.7480   -2.4511 C   0  0  0  0  0  0
   -4.7490   -0.4412   -1.9988 C   0  0  0  0  0  0
   -4.6077   -0.7107   -0.4902 C   0  0  0  0  0  0
   -3.1323   -0.8930   -0.0717 C   0  0  0  0  0  0
   -2.5471    2.3170    4.3549 C   0  0  0  0  0  0
   -3.1739    3.1929    3.4738 C   0  0  0  0  0  0
   -3.1903    2.9479    2.0932 C   0  0  0  0  0  0
   -2.5664    1.7794    1.5951 C   0  0  0  0  0  0
   -1.9410    0.9058    2.5010 C   0  0  0  0  0  0
   -1.9298    1.1722    3.8670 C   0  0  0  0  0  0
   -2.6057    1.5286    0.2027 N   0  0  0  0  0  0
   -0.6813   -0.0150   -0.3429 C   0  0  0  0  0  0
   -0.2984   -1.2950   -0.1606 N   0  0  0  0  0  0
    0.1333    0.9122   -0.3534 O   0  0  0  0  0  0
    1.0655   -1.7490    0.1237 C   0  0  0  0  0  0
    1.4212   -1.7006    1.6240 C   0  0  0  0  0  0
    1.5014   -0.3464    2.1620 N   0  0  0  0  0  0
    1.7645   -0.0995    3.5188 C   0  0  0  0  0  0
    2.1801   -1.0966    4.4095 C   0  0  0  0  0  0
    2.4109   -0.7848    5.7465 C   0  0  0  0  0  0
    2.2326    0.5174    6.2144 C   0  0  0  0  0  0
    1.8191    1.5153    5.3183 C   0  0  0  0  0  0
    1.5903    1.2053    3.9808 C   0  0  0  0  0  0
    2.4822    0.7305    7.5566 O   0  0  0  0  0  0
    2.3215    2.0395    8.0929 C   0  0  0  0  0  0
   -3.8764    3.9382    1.2102 C   0  0  0  0  0  0
   -5.2180    4.2698    1.4342 C   0  0  0  0  0  0
   -5.8655    5.1906    0.6146 C   0  0  0  0  0  0
   -5.1703    5.7890   -0.4327 C   0  0  0  0  0  0
   -3.8338    5.4758   -0.6647 C   0  0  0  0  0  0
   -3.1894    4.5554    0.1572 C   0  0  0  0  0  0
   -1.9832   -0.2296   -2.6269 H   0  0  0  0  0  0
   -1.8560    1.4793   -2.3357 H   0  0  0  0  0  0
   -4.2857    1.6702   -2.0284 H   0  0  0  0  0  0
   -3.9501    0.8622   -3.5337 H   0  0  0  0  0  0
   -5.7945   -0.2542   -2.2466 H   0  0  0  0  0  0
   -4.4589   -1.3335   -2.5556 H   0  0  0  0  0  0
   -5.0481    0.1154    0.0702 H   0  0  0  0  0  0
   -5.1813   -1.5974   -0.2183 H   0  0  0  0  0  0
   -2.7921   -1.8246   -0.5276 H   0  0  0  0  0  0
   -3.0868   -1.0662    1.0031 H   0  0  0  0  0  0
   -2.5397    2.5267    5.4144 H   0  0  0  0  0  0
   -3.6455    4.0803    3.8713 H   0  0  0  0  0  0
   -1.4551    0.0015    2.1747 H   0  0  0  0  0  0
   -1.4407    0.4892    4.5460 H   0  0  0  0  0  0
   -3.2487    2.1163   -0.3078 H   0  0  0  0  0  0
   -1.0068   -2.0135   -0.1920 H   0  0  0  0  0  0
    1.1610   -2.7742   -0.2343 H   0  0  0  0  0  0
    1.7858   -1.1646   -0.4531 H   0  0  0  0  0  0
    0.6960   -2.2798    2.1975 H   0  0  0  0  0  0
    2.3837   -2.1857    1.7910 H   0  0  0  0  0  0
    1.0210    0.3787    1.6463 H   0  0  0  0  0  0
    2.3258   -2.1152    4.0830 H   0  0  0  0  0  0
    2.7296   -1.5617    6.4260 H   0  0  0  0  0  0
    1.6683    2.5344    5.6403 H   0  0  0  0  0  0
    1.2672    1.9862    3.3067 H   0  0  0  0  0  0
    2.5582    2.0241    9.1566 H   0  0  0  0  0  0
    1.2942    2.3918    7.9889 H   0  0  0  0  0  0
    2.9952    2.7527    7.6153 H   0  0  0  0  0  0
   -5.7649    3.8068    2.2429 H   0  0  0  0  0  0
   -6.9019    5.4388    0.7900 H   0  0  0  0  0  0
   -5.6714    6.5032   -1.0695 H   0  0  0  0  0  0
   -3.2984    5.9453   -1.4768 H   0  0  0  0  0  0
   -2.1506    4.3205   -0.0262 H   0  0  0  0  0  0
  1  6  1  0  0  0
  1 13  1  0  0  0
  1 14  1  0  0  0
  1  2  1  0  0  0
  2  3  1  0  0  0
  2 34  1  0  0  0
  2 35  1  0  0  0
  3  4  1  0  0  0
  3 36  1  0  0  0
  3 37  1  0  0  0
  4  5  1  0  0  0
  4 38  1  0  0  0
  4 39  1  0  0  0
  5  6  1  0  0  0
  5 40  1  0  0  0
  5 41  1  0  0  0
  6 42  1  0  0  0
  6 43  1  0  0  0
  7 12  2  0  0  0
  7  8  1  0  0  0
  7 44  1  0  0  0
  8  9  2  0  0  0
  8 45  1  0  0  0
  9 10  1  0  0  0
  9 28  1  0  0  0
 10 11  2  0  0  0
 10 13  1  0  0  0
 11 12  1  0  0  0
 11 46  1  0  0  0
 12 47  1  0  0  0
 13 48  1  0  0  0
 14 16  2  0  0  0
 14 15  1  0  0  0
 15 17  1  0  0  0
 15 49  1  0  0  0
 17 18  1  0  0  0
 17 50  1  0  0  0
 17 51  1  0  0  0
 18 19  1  0  0  0
 18 52  1  0  0  0
 18 53  1  0  0  0
 19 20  1  0  0  0
 19 54  1  0  0  0
 20 21  2  0  0  0
 20 25  1  0  0  0
 21 22  1  0  0  0
 21 55  1  0  0  0
 22 23  2  0  0  0
 22 56  1  0  0  0
 23 24  1  0  0  0
 23 26  1  0  0  0
 24 25  2  0  0  0
 24 57  1  0  0  0
 25 58  1  0  0  0
 26 27  1  0  0  0
 27 59  1  0  0  0
 27 60  1  0  0  0
 27 61  1  0  0  0
 28 29  2  0  0  0
 28 33  1  0  0  0
 29 30  1  0  0  0
 29 62  1  0  0  0
 30 31  2  0  0  0
 30 63  1  0  0  0
 31 32  1  0  0  0
 31 64  1  0  0  0
 32 33  2  0  0  0
 32 65  1  0  0  0
 33 66  1  0  0  0
M  END
> <chembl_id>
CHEMBL203270

> <chembl_pref_name>
None

> <s_m_source_file>
sdf/inactives_sanitized.sdf

> <i_m_source_file_index>
340

> <i_lp_mmshare_version>
49012

> <i_m_ct_stereo_status>
1

> <i_f3d_flags>
0

> <s_epik_input>
W2NIXTFbY0hdYyhPW0NIM10pW2NIXVtjSF1jMVtOSF1bQ0gyXVtDSDJdW05IXUMoPU8pQzIoW0NIMl1bQ0gyXVtDSDJdW0NIMl1bQ0gyXTIpW05IXWMzW2NIXVtjSF1bY0hdW2NIXWMzLWM0W2NIXVtjSF1bY0hdW2NIXVtjSF00

> <s_epik_cmdline>
J2VwaWtfcHl0aG9uJywgJy1waHQnLCAnMC41JywgJy1waCcsICc3LjUnLCAnLW50JywgJy1tYScsICcyMDAnLCAnLWltYWUnLCAnPGluZmlsZS5tYWU+JywgJy1vbWFlJywgJzxvdXRmaWxlLm1hZT4n

> <r_lp_tautomer_probability>
1

> <r_epik_Ionization_Penalty>
  0.0023

> <r_epik_Ionization_Penalty_Charging>
  0.0000

> <r_epik_Ionization_Penalty_Neutral>
  0.0023

> <r_epik_State_Penalty>
 -0.0000

> <r_epik_Charging_Adjusted_Penalty>
0

> <i_epik_Tot_Q>
0

> <i_epik_Tot_abs_Q>
0

> <s_lp_Force_Field>
OPLS3e

> <r_lp_Energy>
56.779761

> <b_lp_Chiralities_Consistent>
1

> <s_lp_Variant>
sdf/inactives_sanitized.sdf:340-1

$$$$
sdf/inactives_sanitized.sdf:341
                    3D
 Schrodinger Suite 2020-1.
 56 59  0  0  1  0            999 V2000
    0.4399    2.1241    0.6086 N   0  0  0  0  0  0
   -0.3979    3.1918    0.5210 C   0  0  0  0  0  0
   -1.6816    3.2108    0.0792 N   0  0  0  0  0  0
   -2.1997    2.0234   -0.3291 C   0  0  0  0  0  0
   -0.1084    0.9746    0.1850 C   0  0  0  0  0  0
   -1.4362    0.8446   -0.2988 C   0  0  0  0  0  0
   -1.6213   -0.5269   -0.6338 C   0  0  0  0  0  0
   -0.4334   -1.1974   -0.3645 C   0  0  0  0  0  0
    0.4893   -0.2776    0.1273 N   0  0  0  0  0  0
    0.1524    4.4679    0.9452 C   0  0  0  0  0  0
    0.5922    5.4841    1.2824 N   0  0  0  0  0  0
   -0.0817   -2.6722   -0.5298 C   0  0  0  0  0  0
   -1.2251   -3.5202   -1.0727 C   0  0  0  0  0  0
   -1.3328   -3.7504   -2.4471 C   0  0  0  0  0  0
   -2.3814   -4.5208   -2.9427 C   0  0  0  0  0  0
   -3.3204   -5.0584   -2.0634 C   0  0  0  0  0  0
   -3.2180   -4.8312   -0.6918 C   0  0  0  0  0  0
   -2.1692   -4.0614   -0.1957 C   0  0  0  0  0  0
   -4.6204   -6.0129   -2.6780 Cl  0  0  0  0  0  0
    1.8773   -0.5766    0.5051 C   0  0  0  0  0  0
    2.8280   -0.5611   -0.7177 C   0  0  0  0  0  0
    3.1246    0.8380   -1.3260 C   0  0  0  0  0  0
    3.6579    0.6880   -2.7780 C   0  0  0  0  0  0
    3.7106    1.9615   -3.6537 C   0  0  0  0  0  0
    4.0888    1.6571   -0.4148 C   0  0  0  0  0  0
    3.7156    3.1328   -0.1461 C   0  0  0  0  0  0
    3.2032    3.9728   -1.3337 C   0  0  0  0  0  0
    4.2050    4.2430   -2.4745 C   0  0  0  0  0  0
    4.7565    3.0207   -3.2388 C   0  0  0  0  0  0
   -3.2207    2.0271   -0.6813 H   0  0  0  0  0  0
   -2.5156   -0.9865   -1.0287 H   0  0  0  0  0  0
    0.7774   -2.7889   -1.1904 H   0  0  0  0  0  0
    0.2208   -3.0897    0.4317 H   0  0  0  0  0  0
   -0.6083   -3.3324   -3.1310 H   0  0  0  0  0  0
   -2.4642   -4.6986   -4.0050 H   0  0  0  0  0  0
   -3.9479   -5.2481   -0.0133 H   0  0  0  0  0  0
   -2.0938   -3.8837    0.8674 H   0  0  0  0  0  0
    2.1972    0.1456    1.2570 H   0  0  0  0  0  0
    1.9068   -1.5474    1.0003 H   0  0  0  0  0  0
    3.7719   -1.0299   -0.4358 H   0  0  0  0  0  0
    2.4139   -1.2193   -1.4817 H   0  0  0  0  0  0
    2.1689    1.3530   -1.3990 H   0  0  0  0  0  0
    4.6440    0.2209   -2.7590 H   0  0  0  0  0  0
    3.0211   -0.0222   -3.3082 H   0  0  0  0  0  0
    3.9531    1.6392   -4.6676 H   0  0  0  0  0  0
    2.7182    2.4058   -3.7379 H   0  0  0  0  0  0
    4.1696    1.1813    0.5631 H   0  0  0  0  0  0
    5.1075    1.5951   -0.7944 H   0  0  0  0  0  0
    2.9503    3.1512    0.6292 H   0  0  0  0  0  0
    4.5750    3.6357    0.2991 H   0  0  0  0  0  0
    2.2862    3.5429   -1.7347 H   0  0  0  0  0  0
    2.8920    4.9406   -0.9378 H   0  0  0  0  0  0
    3.7132    4.8980   -3.1952 H   0  0  0  0  0  0
    5.0433    4.8220   -2.0852 H   0  0  0  0  0  0
    5.2342    3.4004   -4.1433 H   0  0  0  0  0  0
    5.5751    2.5603   -2.6878 H   0  0  0  0  0  0
  1  2  2  0  0  0
  1  5  1  0  0  0
  2 10  1  0  0  0
  2  3  1  0  0  0
  3  4  2  0  0  0
  4  6  1  0  0  0
  4 30  1  0  0  0
  5  9  1  0  0  0
  5  6  2  0  0  0
  6  7  1  0  0  0
  7  8  2  0  0  0
  7 31  1  0  0  0
  8  9  1  0  0  0
  8 12  1  0  0  0
  9 20  1  0  0  0
 10 11  3  0  0  0
 12 13  1  0  0  0
 12 32  1  0  0  0
 12 33  1  0  0  0
 13 14  2  0  0  0
 13 18  1  0  0  0
 14 15  1  0  0  0
 14 34  1  0  0  0
 15 16  2  0  0  0
 15 35  1  0  0  0
 16 17  1  0  0  0
 16 19  1  0  0  0
 17 18  2  0  0  0
 17 36  1  0  0  0
 18 37  1  0  0  0
 20 21  1  0  0  0
 20 38  1  0  0  0
 20 39  1  0  0  0
 21 22  1  0  0  0
 21 40  1  0  0  0
 21 41  1  0  0  0
 22 23  1  0  0  0
 22 25  1  0  0  0
 22 42  1  0  0  0
 23 24  1  0  0  0
 23 43  1  0  0  0
 23 44  1  0  0  0
 24 29  1  0  0  0
 24 45  1  0  0  0
 24 46  1  0  0  0
 25 26  1  0  0  0
 25 47  1  0  0  0
 25 48  1  0  0  0
 26 27  1  0  0  0
 26 49  1  0  0  0
 26 50  1  0  0  0
 27 28  1  0  0  0
 27 51  1  0  0  0
 27 52  1  0  0  0
 28 29  1  0  0  0
 28 53  1  0  0  0
 28 54  1  0  0  0
 29 55  1  0  0  0
 29 56  1  0  0  0
M  END
> <chembl_id>
CHEMBL522326

> <chembl_pref_name>
None

> <s_m_source_file>
sdf/inactives_sanitized.sdf

> <i_m_source_file_index>
341

> <i_lp_mmshare_version>
49012

> <i_m_ct_stereo_status>
1

> <i_f3d_flags>
0

> <s_epik_input>
TiNDYyhuMSluW2NIXWMoYzEyKVtjSF1jKFtDSDJdYzNbY0hdW2NIXWMoQ2wpW2NIXVtjSF0zKW4yW0NIMl1bQ0gyXVtDSF00W0NIMl1bQ0gyXVtDSDJdW0NIMl1bQ0gyXVtDSDJdW0NIMl00

> <s_epik_cmdline>
J2VwaWtfcHl0aG9uJywgJy1waHQnLCAnMC41JywgJy1waCcsICc3LjUnLCAnLW50JywgJy1tYScsICcyMDAnLCAnLWltYWUnLCAnPGluZmlsZS5tYWU+JywgJy1vbWFlJywgJzxvdXRmaWxlLm1hZT4n

> <r_lp_tautomer_probability>
1

> <r_epik_Ionization_Penalty>
  0.0000

> <r_epik_Ionization_Penalty_Charging>
  0.0000

> <r_epik_Ionization_Penalty_Neutral>
  0.0000

> <r_epik_State_Penalty>
 -0.0000

> <r_epik_Charging_Adjusted_Penalty>
0

> <i_epik_Tot_Q>
0

> <i_epik_Tot_abs_Q>
0

> <s_lp_Force_Field>
OPLS3e

> <r_lp_Energy>
44.319854

> <b_lp_Chiralities_Consistent>
1

> <s_lp_Variant>
sdf/inactives_sanitized.sdf:341-1

$$$$
sdf/inactives_sanitized.sdf:342
                    3D
 Schrodinger Suite 2020-1.
 42 44  0  0  1  0            999 V2000
   -2.3951    3.4883   -0.6032 N   0  0  0  0  0  0
   -1.0538    3.5087   -0.3506 C   0  0  0  0  0  0
   -0.2989    2.3828   -0.1928 N   0  0  0  0  0  0
   -0.9596    1.1935   -0.2804 C   0  0  0  0  0  0
   -2.2911    1.0713   -0.5175 N   0  0  0  0  0  0
   -2.9480    2.2501   -0.6664 C   0  0  0  0  0  0
   -0.3977    4.7444   -0.3357 N   0  0  0  0  0  0
   -1.1444    6.0164   -0.2366 C   0  0  0  0  0  0
   -0.3349    7.2636   -0.6473 C   0  0  0  0  0  0
    0.8935    7.3043    0.0594 O   0  0  0  0  0  0
    1.6983    6.1770   -0.2423 C   0  0  0  0  0  0
    0.9799    4.8811    0.1848 C   0  0  0  0  0  0
   -4.3762    2.1805   -0.9245 C   0  0  0  0  0  0
   -5.5139    2.1254   -1.1302 N   0  0  0  0  0  0
   -0.2490   -0.0098   -0.1460 N   0  0  0  0  0  0
    1.2041   -0.0357    0.0269 C   0  0  0  0  0  0
    1.9939   -0.0610   -1.2997 C   0  0  1  0  0  0
    3.4899    0.1442   -1.0606 C   0  0  0  0  0  0
    1.6949   -1.2446   -2.0212 O   0  0  0  0  0  0
    3.9963    1.4473   -1.0093 C   0  0  0  0  0  0
    5.3514    1.6635   -0.7749 C   0  0  0  0  0  0
    6.2010    0.5759   -0.5869 C   0  0  0  0  0  0
    5.7065   -0.7257   -0.6279 C   0  0  0  0  0  0
    4.3510   -0.9425   -0.8619 C   0  0  0  0  0  0
   -2.0175    5.9769   -0.8889 H   0  0  0  0  0  0
   -1.5243    6.1268    0.7800 H   0  0  0  0  0  0
   -0.1611    7.2793   -1.7252 H   0  0  0  0  0  0
   -0.9001    8.1660   -0.4141 H   0  0  0  0  0  0
    1.9479    6.1531   -1.3052 H   0  0  0  0  0  0
    2.6434    6.2706    0.2930 H   0  0  0  0  0  0
    0.9589    4.7977    1.2723 H   0  0  0  0  0  0
    1.5889    4.0510   -0.1749 H   0  0  0  0  0  0
   -0.7300   -0.8780   -0.3324 H   0  0  0  0  0  0
    1.5151    0.8272    0.6175 H   0  0  0  0  0  0
    1.4621   -0.8973    0.6440 H   0  0  0  0  0  0
    1.6524    0.7589   -1.9350 H   0  0  0  0  0  0
    0.7412   -1.3480   -2.0521 H   0  0  0  0  0  0
    3.3400    2.2944   -1.1493 H   0  0  0  0  0  0
    5.7409    2.6698   -0.7375 H   0  0  0  0  0  0
    7.2522    0.7434   -0.4046 H   0  0  0  0  0  0
    6.3715   -1.5633   -0.4766 H   0  0  0  0  0  0
    3.9743   -1.9545   -0.8851 H   0  0  0  0  0  0
  1  2  2  0  0  0
  1  6  1  0  0  0
  2  3  1  0  0  0
  2  7  1  0  0  0
  3  4  2  0  0  0
  4  5  1  0  0  0
  4 15  1  0  0  0
  5  6  2  0  0  0
  6 13  1  0  0  0
  7  8  1  0  0  0
  7 12  1  0  0  0
  8  9  1  0  0  0
  8 25  1  0  0  0
  8 26  1  0  0  0
  9 10  1  0  0  0
  9 27  1  0  0  0
  9 28  1  0  0  0
 10 11  1  0  0  0
 11 12  1  0  0  0
 11 29  1  0  0  0
 11 30  1  0  0  0
 12 31  1  0  0  0
 12 32  1  0  0  0
 13 14  3  0  0  0
 15 16  1  0  0  0
 15 33  1  0  0  0
 16 17  1  0  0  0
 16 34  1  0  0  0
 16 35  1  0  0  0
 17 18  1  0  0  0
 17 19  1  0  0  0
 17 36  1  0  0  0
 18 20  2  0  0  0
 18 24  1  0  0  0
 19 37  1  0  0  0
 20 21  1  0  0  0
 20 38  1  0  0  0
 21 22  2  0  0  0
 21 39  1  0  0  0
 22 23  1  0  0  0
 22 40  1  0  0  0
 23 24  2  0  0  0
 23 41  1  0  0  0
 24 42  1  0  0  0
M  END
> <chembl_id>
CHEMBL4250979

> <chembl_pref_name>
None

> <i_m_ct_stereo_status>
1

> <s_m_source_file>
sdf/inactives_sanitized.sdf

> <i_m_source_file_index>
342

> <i_lp_mmshare_version>
49012

> <i_f3d_flags>
0

> <s_epik_input>
W0NIMl0xW0NIMl1PW0NIMl1bQ0gyXU4xYzJuYyhDI04pbmMobjIpW05IXVtDSDJdW0NASF0oW09IXSljM1tjSF1bY0hdW2NIXVtjSF1bY0hdMw==

> <s_epik_cmdline>
J2VwaWtfcHl0aG9uJywgJy1waHQnLCAnMC41JywgJy1waCcsICc3LjUnLCAnLW50JywgJy1tYScsICcyMDAnLCAnLWltYWUnLCAnPGluZmlsZS5tYWU+JywgJy1vbWFlJywgJzxvdXRmaWxlLm1hZT4n

> <r_lp_tautomer_probability>
1

> <r_epik_Ionization_Penalty>
  0.0000

> <r_epik_Ionization_Penalty_Charging>
  0.0000

> <r_epik_Ionization_Penalty_Neutral>
  0.0000

> <r_epik_State_Penalty>
 -0.0000

> <r_epik_Charging_Adjusted_Penalty>
0

> <i_epik_Tot_Q>
0

> <i_epik_Tot_abs_Q>
0

> <s_lp_Force_Field>
OPLS3e

> <r_lp_Energy>
28.344896

> <b_lp_Chiralities_Consistent>
1

> <s_lp_Variant>
sdf/inactives_sanitized.sdf:342-1

$$$$
sdf/inactives_sanitized.sdf:343
                    3D
 Schrodinger Suite 2020-1.
 52 55  0  0  1  0            999 V2000
   -3.1493    1.8295    0.3386 N   0  0  0  0  0  0
   -4.3686    1.2303    0.4109 C   0  0  0  0  0  0
   -4.6470   -0.0991    0.4137 N   0  0  0  0  0  0
   -3.5849   -0.9423    0.3335 C   0  0  0  0  0  0
   -2.1303    0.9582    0.2632 C   0  0  0  0  0  0
   -2.2703   -0.4540    0.2520 C   0  0  0  0  0  0
   -0.9573   -0.9989    0.1517 C   0  0  0  0  0  0
   -0.0573    0.0603    0.1049 C   0  0  0  0  0  0
   -0.7757    1.2487    0.1865 N   0  0  0  0  0  0
   -5.5121    2.1227    0.4964 C   0  0  0  0  0  0
   -6.4228    2.8338    0.5647 N   0  0  0  0  0  0
    1.4629    0.0600   -0.0140 C   0  0  0  0  0  0
    2.0707   -1.2682   -0.0303 N   0  0  0  0  0  0
    2.2250   -2.0167    1.1516 C   0  0  0  0  0  0
   -0.2115    2.5998    0.1457 C   0  0  0  0  0  0
   -0.1584    3.1262   -1.3040 C   0  0  0  0  0  0
    0.3121    4.5944   -1.4317 C   0  0  0  0  0  0
    0.1505    5.1056   -2.8826 C   0  0  0  0  0  0
    0.5262    6.5967   -3.0028 C   0  0  0  0  0  0
    1.9588    6.8626   -2.4924 C   0  0  0  0  0  0
    2.1979    6.2823   -1.0819 C   0  0  0  0  0  0
    1.7859    4.7979   -1.0003 C   0  0  0  0  0  0
    2.6214   -3.3500    1.0191 C   0  0  0  0  0  0
    2.7931   -4.1491    2.1465 C   0  0  0  0  0  0
    2.5666   -3.6143    3.4120 C   0  0  0  0  0  0
    2.1707   -2.2876    3.5590 C   0  0  0  0  0  0
    2.0005   -1.4879    2.4318 C   0  0  0  0  0  0
   -3.7959   -2.0015    0.3332 H   0  0  0  0  0  0
   -0.6847   -2.0434    0.1130 H   0  0  0  0  0  0
    1.9536    0.6797    0.7365 H   0  0  0  0  0  0
    1.7244    0.5170   -0.9687 H   0  0  0  0  0  0
    1.8941   -1.8204   -0.8572 H   0  0  0  0  0  0
   -0.8274    3.2532    0.7659 H   0  0  0  0  0  0
    0.7729    2.5944    0.6112 H   0  0  0  0  0  0
    0.4870    2.4833   -1.9051 H   0  0  0  0  0  0
   -1.1555    3.0413   -1.7406 H   0  0  0  0  0  0
   -0.3160    5.2177   -0.7917 H   0  0  0  0  0  0
    0.7498    4.4997   -3.5648 H   0  0  0  0  0  0
   -0.8786    4.9600   -3.2142 H   0  0  0  0  0  0
    0.4348    6.9221   -4.0395 H   0  0  0  0  0  0
   -0.1822    7.1983   -2.4311 H   0  0  0  0  0  0
    2.6739    6.4189   -3.1870 H   0  0  0  0  0  0
    2.1617    7.9342   -2.4934 H   0  0  0  0  0  0
    3.2474    6.3940   -0.8072 H   0  0  0  0  0  0
    1.6290    6.8583   -0.3504 H   0  0  0  0  0  0
    1.9406    4.4370    0.0161 H   0  0  0  0  0  0
    2.4445    4.1821   -1.6152 H   0  0  0  0  0  0
    2.7997   -3.7746    0.0413 H   0  0  0  0  0  0
    3.1007   -5.1789    2.0396 H   0  0  0  0  0  0
    2.7000   -4.2335    4.2870 H   0  0  0  0  0  0
    1.9960   -1.8795    4.5439 H   0  0  0  0  0  0
    1.6901   -0.4637    2.5726 H   0  0  0  0  0  0
  1  2  2  0  0  0
  1  5  1  0  0  0
  2  3  1  0  0  0
  2 10  1  0  0  0
  3  4  2  0  0  0
  4  6  1  0  0  0
  4 28  1  0  0  0
  5  9  1  0  0  0
  5  6  2  0  0  0
  6  7  1  0  0  0
  7  8  2  0  0  0
  7 29  1  0  0  0
  8  9  1  0  0  0
  8 12  1  0  0  0
  9 15  1  0  0  0
 10 11  3  0  0  0
 12 13  1  0  0  0
 12 30  1  0  0  0
 12 31  1  0  0  0
 13 14  1  0  0  0
 13 32  1  0  0  0
 14 23  2  0  0  0
 14 27  1  0  0  0
 15 16  1  0  0  0
 15 33  1  0  0  0
 15 34  1  0  0  0
 16 17  1  0  0  0
 16 35  1  0  0  0
 16 36  1  0  0  0
 17 18  1  0  0  0
 17 22  1  0  0  0
 17 37  1  0  0  0
 18 19  1  0  0  0
 18 38  1  0  0  0
 18 39  1  0  0  0
 19 20  1  0  0  0
 19 40  1  0  0  0
 19 41  1  0  0  0
 20 21  1  0  0  0
 20 42  1  0  0  0
 20 43  1  0  0  0
 21 22  1  0  0  0
 21 44  1  0  0  0
 21 45  1  0  0  0
 22 46  1  0  0  0
 22 47  1  0  0  0
 23 24  1  0  0  0
 23 48  1  0  0  0
 24 25  2  0  0  0
 24 49  1  0  0  0
 25 26  1  0  0  0
 25 50  1  0  0  0
 26 27  2  0  0  0
 26 51  1  0  0  0
 27 52  1  0  0  0
M  END
> <chembl_id>
CHEMBL523037

> <chembl_pref_name>
None

> <s_m_source_file>
sdf/inactives_sanitized.sdf

> <i_m_source_file_index>
343

> <i_lp_mmshare_version>
49012

> <i_m_ct_stereo_status>
1

> <i_f3d_flags>
0

> <s_epik_input>
W2NIXTFbY0hdW2NIXVtjSF1bY0hdYzFbTkhdW0NIMl1jKFtjSF1jKGMyMylbY0hdbmMobjIpQyNOKW4zW0NIMl1bQ0gyXVtDSF00W0NIMl1bQ0gyXVtDSDJdW0NIMl1bQ0gyXTQ=

> <s_epik_cmdline>
J2VwaWtfcHl0aG9uJywgJy1waHQnLCAnMC41JywgJy1waCcsICc3LjUnLCAnLW50JywgJy1tYScsICcyMDAnLCAnLWltYWUnLCAnPGluZmlsZS5tYWU+JywgJy1vbWFlJywgJzxvdXRmaWxlLm1hZT4n

> <r_lp_tautomer_probability>
1

> <r_epik_Ionization_Penalty>
  0.0001

> <r_epik_Ionization_Penalty_Charging>
  0.0000

> <r_epik_Ionization_Penalty_Neutral>
  0.0001

> <r_epik_State_Penalty>
 -0.0000

> <r_epik_Charging_Adjusted_Penalty>
0

> <i_epik_Tot_Q>
0

> <i_epik_Tot_abs_Q>
0

> <s_lp_Force_Field>
OPLS3e

> <r_lp_Energy>
40.88852

> <b_lp_Chiralities_Consistent>
1

> <s_lp_Variant>
sdf/inactives_sanitized.sdf:343-1

$$$$
sdf/inactives_sanitized.sdf:344
                    3D
 Schrodinger Suite 2020-1.
 37 38  0  0  1  0            999 V2000
   -2.7813    0.2602    0.5682 N   0  0  0  0  0  0
   -2.2272   -0.9522    0.2752 C   0  0  0  0  0  0
   -0.8428   -1.0718   -0.0024 C   0  0  0  0  0  0
   -0.0649    0.1080    0.0366 C   0  0  0  0  0  0
   -0.6245    1.3161    0.3268 N   0  0  0  0  0  0
   -1.9525    1.3288    0.5808 C   0  0  0  0  0  0
   -2.5479    2.6171    0.8894 C   0  0  0  0  0  0
   -3.0224    3.6438    1.1349 N   0  0  0  0  0  0
   -0.2530   -2.3190   -0.2681 N   0  0  0  0  0  0
   -3.1071   -2.0359    0.2064 N   0  0  0  0  0  0
   -3.3282   -2.6581   -1.1119 C   0  0  0  0  0  0
   -3.9888   -4.0491   -1.0027 C   0  0  0  0  0  0
   -5.2177   -3.9462   -0.2971 O   0  0  0  0  0  0
   -5.0399   -3.4230    1.0119 C   0  0  0  0  0  0
   -4.3911   -2.0242    0.9345 C   0  0  0  0  0  0
    1.3210    0.0563   -0.2268 N   0  0  0  0  0  0
    2.2043    1.2192   -0.1490 C   0  0  0  0  0  0
    3.4843    0.9875   -0.9674 C   0  0  0  0  0  0
    2.5387    1.5920    1.3077 C   0  0  0  0  0  0
    0.7420   -2.3769   -0.4309 H   0  0  0  0  0  0
   -0.8268   -3.1503   -0.2532 H   0  0  0  0  0  0
   -3.9374   -1.9934   -1.7267 H   0  0  0  0  0  0
   -2.3847   -2.7753   -1.6432 H   0  0  0  0  0  0
   -4.1919   -4.4437   -1.9983 H   0  0  0  0  0  0
   -3.3235   -4.7635   -0.5137 H   0  0  0  0  0  0
   -6.0153   -3.3542    1.4935 H   0  0  0  0  0  0
   -4.4395   -4.1034    1.6189 H   0  0  0  0  0  0
   -4.2129   -1.6736    1.9521 H   0  0  0  0  0  0
   -5.0751   -1.3095    0.4733 H   0  0  0  0  0  0
    1.7372   -0.8332   -0.4612 H   0  0  0  0  0  0
    1.6860    2.0670   -0.6005 H   0  0  0  0  0  0
    4.1258    1.8693   -0.9543 H   0  0  0  0  0  0
    3.2521    0.7731   -2.0116 H   0  0  0  0  0  0
    4.0638    0.1490   -0.5784 H   0  0  0  0  0  0
    3.1812    2.4720    1.3511 H   0  0  0  0  0  0
    3.0548    0.7788    1.8198 H   0  0  0  0  0  0
    1.6403    1.8230    1.8807 H   0  0  0  0  0  0
  1  6  2  0  0  0
  1  2  1  0  0  0
  2 10  1  0  0  0
  2  3  2  0  0  0
  3  4  1  0  0  0
  3  9  1  0  0  0
  4  5  2  0  0  0
  4 16  1  0  0  0
  5  6  1  0  0  0
  6  7  1  0  0  0
  7  8  3  0  0  0
  9 20  1  0  0  0
  9 21  1  0  0  0
 10 11  1  0  0  0
 10 15  1  0  0  0
 11 12  1  0  0  0
 11 22  1  0  0  0
 11 23  1  0  0  0
 12 13  1  0  0  0
 12 24  1  0  0  0
 12 25  1  0  0  0
 13 14  1  0  0  0
 14 15  1  0  0  0
 14 26  1  0  0  0
 14 27  1  0  0  0
 15 28  1  0  0  0
 15 29  1  0  0  0
 16 17  1  0  0  0
 16 30  1  0  0  0
 17 18  1  0  0  0
 17 19  1  0  0  0
 17 31  1  0  0  0
 18 32  1  0  0  0
 18 33  1  0  0  0
 18 34  1  0  0  0
 19 35  1  0  0  0
 19 36  1  0  0  0
 19 37  1  0  0  0
M  END
> <chembl_id>
CHEMBL471579

> <chembl_pref_name>
None

> <s_m_source_file>
sdf/inactives_sanitized.sdf

> <i_m_source_file_index>
344

> <i_lp_mmshare_version>
49012

> <i_m_ct_stereo_status>
1

> <i_f3d_flags>
0

> <s_epik_input>
W0NIM11bQ0hdKFtDSDNdKVtOSF1jKGMxW05IMl0pbmMoQyNOKW5jMU4yW0NIMl1bQ0gyXU9bQ0gyXVtDSDJdMg==

> <s_epik_cmdline>
J2VwaWtfcHl0aG9uJywgJy1waHQnLCAnMC41JywgJy1waCcsICc3LjUnLCAnLW50JywgJy1tYScsICcyMDAnLCAnLWltYWUnLCAnPGluZmlsZS5tYWU+JywgJy1vbWFlJywgJzxvdXRmaWxlLm1hZT4n

> <r_lp_tautomer_probability>
1

> <r_epik_Ionization_Penalty>
  0.0000

> <r_epik_Ionization_Penalty_Charging>
  0.0000

> <r_epik_Ionization_Penalty_Neutral>
  0.0000

> <r_epik_State_Penalty>
 -0.0000

> <r_epik_Charging_Adjusted_Penalty>
0

> <i_epik_Tot_Q>
0

> <i_epik_Tot_abs_Q>
0

> <s_lp_Force_Field>
OPLS3e

> <r_lp_Energy>
37.958964

> <b_lp_Chiralities_Consistent>
1

> <s_lp_Variant>
sdf/inactives_sanitized.sdf:344-1

$$$$
sdf/inactives_sanitized.sdf:345
                    3D
 Schrodinger Suite 2020-1.
 61 63  0  0  1  0            999 V2000
   -1.9191    1.2469    0.9059 C   0  0  1  0  0  0
   -3.5363    1.5595   -0.4171 N   0  0  0  0  0  0
   -2.4881    2.4627    0.1148 C   0  0  1  0  0  0
   -3.0214    0.4174    0.1952 C   0  0  0  0  0  0
   -0.5106    0.8999    0.6479 N   0  0  0  0  0  0
    0.0788    0.5491   -0.5140 C   0  0  0  0  0  0
    2.2027   -0.8293    1.6945 C   0  0  0  0  0  0
    1.6049    0.3166   -0.4466 C   0  0  1  0  0  0
    1.9445   -0.8869    0.3304 N   0  0  0  0  0  0
   -2.9835    3.4916    0.9241 O   0  0  0  0  0  0
   -3.3359   -0.7700    0.1579 O   0  0  0  0  0  0
   -0.5185    0.4048   -1.5817 O   0  0  0  0  0  0
    2.3148    0.2537   -1.8256 C   0  0  0  0  0  0
    2.1511    0.1745    2.4104 O   0  0  0  0  0  0
    2.5313   -2.0628    2.1192 O   0  0  0  0  0  0
   -2.1572    4.6299    1.2143 C   0  0  0  0  0  0
    2.8847   -2.3012    3.4752 C   0  0  0  0  0  0
    3.8346    0.2386   -1.7643 C   0  0  0  0  0  0
    3.3751   -3.7297    3.6173 C   0  0  0  0  0  0
   -2.0457    5.5301   -0.0373 C   0  0  0  0  0  0
   -0.7570    4.2234    1.7325 C   0  0  0  0  0  0
   -2.9189    5.3791    2.3244 C   0  0  0  0  0  0
    4.5489    1.4472   -1.6227 C   0  0  0  0  0  0
    4.5333   -0.9840   -1.6658 C   0  0  0  0  0  0
    4.7256   -4.0230    3.4143 C   0  0  0  0  0  0
    2.4739   -4.7467    3.9406 C   0  0  0  0  0  0
    2.9245   -6.0590    4.0608 C   0  0  0  0  0  0
    5.1753   -5.3354    3.5348 C   0  0  0  0  0  0
    5.9117   -0.9859   -1.4981 C   0  0  0  0  0  0
    5.9276    1.4245   -1.4570 C   0  0  0  0  0  0
    4.2728   -6.3472    3.8573 C   0  0  0  0  0  0
    6.6061    0.2134   -1.4002 C   0  0  0  0  0  0
   -2.0215    1.3037    1.9902 H   0  0  0  0  0  0
   -4.0259    1.5999   -1.2990 H   0  0  0  0  0  0
   -1.8517    2.8822   -0.6664 H   0  0  0  0  0  0
    0.1108    1.0682    1.4268 H   0  0  0  0  0  0
    2.0247    1.2029    0.0374 H   0  0  0  0  0  0
    1.9832   -1.7762   -0.1460 H   0  0  0  0  0  0
    1.9884   -0.6320   -2.3741 H   0  0  0  0  0  0
    2.0148    1.1071   -2.4365 H   0  0  0  0  0  0
    3.6688   -1.6148    3.8009 H   0  0  0  0  0  0
    2.0262   -2.1359    4.1284 H   0  0  0  0  0  0
   -1.5584    6.4775    0.1973 H   0  0  0  0  0  0
   -3.0307    5.7607   -0.4452 H   0  0  0  0  0  0
   -1.4686    5.0622   -0.8343 H   0  0  0  0  0  0
   -0.1658    3.7292    0.9611 H   0  0  0  0  0  0
   -0.8310    3.5362    2.5760 H   0  0  0  0  0  0
   -0.1883    5.0922    2.0663 H   0  0  0  0  0  0
   -2.3964    6.2864    2.6307 H   0  0  0  0  0  0
   -3.0431    4.7545    3.2101 H   0  0  0  0  0  0
   -3.9179    5.6688    1.9958 H   0  0  0  0  0  0
    4.0264    2.3924   -1.6422 H   0  0  0  0  0  0
    3.9991   -1.9214   -1.7178 H   0  0  0  0  0  0
    5.4240   -3.2385    3.1605 H   0  0  0  0  0  0
    1.4280   -4.5233    4.0942 H   0  0  0  0  0  0
    2.2317   -6.8497    4.3088 H   0  0  0  0  0  0
    6.2182   -5.5682    3.3773 H   0  0  0  0  0  0
    6.4444   -1.9231   -1.4335 H   0  0  0  0  0  0
    6.4732    2.3516   -1.3617 H   0  0  0  0  0  0
    4.6220   -7.3650    3.9491 H   0  0  0  0  0  0
    7.6776    0.2041   -1.2653 H   0  0  0  0  0  0
  1  3  1  0  0  0
  1  4  1  0  0  0
  1  5  1  0  0  0
  1 33  1  0  0  0
  2  4  1  0  0  0
  2  3  1  0  0  0
  2 34  1  0  0  0
  3 10  1  0  0  0
  3 35  1  0  0  0
  4 11  2  0  0  0
  5  6  1  0  0  0
  5 36  1  0  0  0
  6  8  1  0  0  0
  6 12  2  0  0  0
  7  9  1  0  0  0
  7 14  2  0  0  0
  7 15  1  0  0  0
  8  9  1  0  0  0
  8 13  1  0  0  0
  8 37  1  0  0  0
  9 38  1  0  0  0
 10 16  1  0  0  0
 13 18  1  0  0  0
 13 39  1  0  0  0
 13 40  1  0  0  0
 15 17  1  0  0  0
 16 20  1  0  0  0
 16 21  1  0  0  0
 16 22  1  0  0  0
 17 19  1  0  0  0
 17 41  1  0  0  0
 17 42  1  0  0  0
 18 23  2  0  0  0
 18 24  1  0  0  0
 19 25  2  0  0  0
 19 26  1  0  0  0
 20 43  1  0  0  0
 20 44  1  0  0  0
 20 45  1  0  0  0
 21 46  1  0  0  0
 21 47  1  0  0  0
 21 48  1  0  0  0
 22 49  1  0  0  0
 22 50  1  0  0  0
 22 51  1  0  0  0
 23 30  1  0  0  0
 23 52  1  0  0  0
 24 29  2  0  0  0
 24 53  1  0  0  0
 25 28  1  0  0  0
 25 54  1  0  0  0
 26 27  2  0  0  0
 26 55  1  0  0  0
 27 31  1  0  0  0
 27 56  1  0  0  0
 28 31  2  0  0  0
 28 57  1  0  0  0
 29 32  1  0  0  0
 29 58  1  0  0  0
 30 32  2  0  0  0
 30 59  1  0  0  0
 31 60  1  0  0  0
 32 61  1  0  0  0
M  END
> <chembl_id>
CHEMBL30957

> <chembl_pref_name>
None

> <i_m_ct_stereo_status>
1

> <s_m_source_file>
sdf/inactives_sanitized.sdf

> <i_m_source_file_index>
345

> <i_lp_mmshare_version>
49012

> <i_f3d_flags>
0

> <s_epik_input>
Tz1DMVtOSF1bQ0BASF0oT0MoW0NIM10pKFtDSDNdKVtDSDNdKVtDQEBIXTFbTkhdQyg9TylbQ0BIXShbQ0gyXWMyW2NIXVtjSF1bY0hdW2NIXVtjSF0yKVtOSF1DKD1PKU9bQ0gyXWMzW2NIXVtjSF1bY0hdW2NIXVtjSF0z

> <s_epik_cmdline>
J2VwaWtfcHl0aG9uJywgJy1waHQnLCAnMC41JywgJy1waCcsICc3LjUnLCAnLW50JywgJy1tYScsICcyMDAnLCAnLWltYWUnLCAnPGluZmlsZS5tYWU+JywgJy1vbWFlJywgJzxvdXRmaWxlLm1hZT4n

> <r_lp_tautomer_probability>
1

> <r_epik_Ionization_Penalty>
  0.0000

> <r_epik_Ionization_Penalty_Charging>
  0.0000

> <r_epik_Ionization_Penalty_Neutral>
  0.0000

> <r_epik_State_Penalty>
 -0.0000

> <r_epik_Charging_Adjusted_Penalty>
0

> <i_epik_Tot_Q>
0

> <i_epik_Tot_abs_Q>
0

> <s_epik_Chemistry_Notes>
This compound has an ester and may undergo hydrolysis at high or low pH. This compound contains an acetal/aminal-like group ( X-CH(R)-Y where X, Y are N, S, or O) that may be acid/base labile, releasing an aldehyde.

> <s_lp_Force_Field>
OPLS3e

> <r_lp_Energy>
30.152994

> <b_lp_Chiralities_Consistent>
1

> <s_lp_Variant>
sdf/inactives_sanitized.sdf:345-1

$$$$
sdf/inactives_sanitized.sdf:346
                    3D
 Schrodinger Suite 2020-1.
 74 77  0  0  1  0            999 V2000
   -1.9375   -2.9191    4.7182 C   0  0  0  0  0  0
   -1.2236   -3.0538    3.5707 O   0  0  0  0  0  0
   -1.1213   -1.8177    3.0092 C   0  0  0  0  0  0
   -1.7335   -0.8835    3.8439 C   0  0  0  0  0  0
   -2.2713   -1.5908    4.9204 C   0  0  0  0  0  0
   -0.3514   -1.6758    1.8037 C   0  0  0  0  0  0
   -0.5506   -0.5059    1.1641 N   0  0  0  0  0  0
    0.4006   -2.5703    1.4142 O   0  0  0  0  0  0
    0.0860   -0.0405   -0.0763 C   0  0  1  0  0  0
    1.5604    0.3350    0.2034 C   0  0  0  0  0  0
    1.8176    1.6493    0.3321 N   0  0  0  0  0  0
    2.4206   -0.5432    0.2798 O   0  0  0  0  0  0
    3.1392    2.2371    0.5918 C   0  0  2  0  0  0
    3.3266    2.4455    2.1155 C   0  0  0  0  0  0
    4.7551    2.5306    2.6690 C   0  0  0  0  0  0
    3.3057    3.5590   -0.1979 C   0  0  0  0  0  0
    5.7621    3.0926    1.7252 N   0  0  3  0  0  0
    4.7518    4.0834   -0.3449 C   0  0  0  0  0  0
    5.5395    4.3529    0.9560 C   0  0  1  0  0  0
    4.9544    5.4844    1.8256 C   0  0  0  0  0  0
    2.3721    2.5357    2.8902 O   0  0  0  0  0  0
    7.3986    1.1220    2.3629 O   0  0  0  0  0  0
    8.1586    2.8455    0.6518 O   0  0  0  0  0  0
    7.4313    2.5085    1.8818 S   0  0  0  0  0  0
    8.1268    3.5089    3.1934 C   0  0  0  0  0  0
    8.4595    4.7805    2.8443 N   0  0  0  0  0  0
    8.9600    5.5900    3.8122 C   0  0  0  0  0  0
    9.1359    5.1747    5.1338 C   0  0  0  0  0  0
    8.7808    3.8674    5.4743 C   0  0  0  0  0  0
    8.2643    3.0161    4.4951 C   0  0  0  0  0  0
   -0.1003   -1.0336   -1.2725 C   0  0  0  0  0  0
   -0.1407   -0.4889   -2.7416 C   0  0  0  0  0  0
   -1.4008    0.4123   -2.9234 C   0  0  0  0  0  0
   -1.5212    0.9914   -4.3531 C   0  0  0  0  0  0
   -0.2477    1.7741   -4.7541 C   0  0  0  0  0  0
    1.0655    1.0048   -4.4729 C   0  0  0  0  0  0
    1.0804    0.4329   -3.0364 C   0  0  0  0  0  0
   -0.1740   -1.6952   -3.7223 C   0  0  0  0  0  0
   -2.1183   -3.8255    5.2772 H   0  0  0  0  0  0
   -1.7848    0.1849    3.6915 H   0  0  0  0  0  0
   -2.8241   -1.1819    5.7533 H   0  0  0  0  0  0
   -1.1960    0.1512    1.5767 H   0  0  0  0  0  0
   -0.4686    0.8720   -0.2906 H   0  0  0  0  0  0
    1.0499    2.3003    0.2529 H   0  0  0  0  0  0
    3.9124    1.5425    0.2544 H   0  0  0  0  0  0
    4.7607    3.1441    3.5705 H   0  0  0  0  0  0
    5.0729    1.5387    2.9878 H   0  0  0  0  0  0
    2.9139    3.4165   -1.2069 H   0  0  0  0  0  0
    2.6778    4.3381    0.2387 H   0  0  0  0  0  0
    4.7284    5.0006   -0.9355 H   0  0  0  0  0  0
    5.3167    3.3717   -0.9498 H   0  0  0  0  0  0
    6.5171    4.6975    0.6182 H   0  0  0  0  0  0
    4.8852    6.4127    1.2578 H   0  0  0  0  0  0
    5.5888    5.6811    2.6905 H   0  0  0  0  0  0
    3.9548    5.2541    2.1934 H   0  0  0  0  0  0
    9.2206    6.5942    3.5114 H   0  0  0  0  0  0
    9.5357    5.8494    5.8764 H   0  0  0  0  0  0
    8.9020    3.5177    6.4890 H   0  0  0  0  0  0
    7.9775    2.0053    4.7462 H   0  0  0  0  0  0
    0.6686   -1.8063   -1.2105 H   0  0  0  0  0  0
   -1.0270   -1.5889   -1.1133 H   0  0  0  0  0  0
   -2.2997   -0.1682   -2.7100 H   0  0  0  0  0  0
   -1.4113    1.2344   -2.2082 H   0  0  0  0  0  0
   -1.7186    0.2001   -5.0760 H   0  0  0  0  0  0
   -2.3858    1.6540   -4.4067 H   0  0  0  0  0  0
   -0.2979    2.0509   -5.8077 H   0  0  0  0  0  0
   -0.2267    2.7131   -4.1987 H   0  0  0  0  0  0
    1.2037    0.2121   -5.2077 H   0  0  0  0  0  0
    1.9149    1.6758   -4.6071 H   0  0  0  0  0  0
    1.1183    1.2682   -2.3382 H   0  0  0  0  0  0
    2.0071   -0.1239   -2.8890 H   0  0  0  0  0  0
   -0.2368   -1.4165   -4.7722 H   0  0  0  0  0  0
   -1.0294   -2.3406   -3.5188 H   0  0  0  0  0  0
    0.7214   -2.3088   -3.6156 H   0  0  0  0  0  0
  1  5  2  0  0  0
  1  2  1  0  0  0
  1 39  1  0  0  0
  2  3  1  0  0  0
  3  6  1  0  0  0
  3  4  2  0  0  0
  4  5  1  0  0  0
  4 40  1  0  0  0
  5 41  1  0  0  0
  6  7  1  0  0  0
  6  8  2  0  0  0
  7  9  1  0  0  0
  7 42  1  0  0  0
  9 10  1  0  0  0
  9 31  1  0  0  0
  9 43  1  0  0  0
 10 11  1  0  0  0
 10 12  2  0  0  0
 11 13  1  0  0  0
 11 44  1  0  0  0
 13 14  1  0  0  0
 13 16  1  0  0  0
 13 45  1  0  0  0
 14 21  2  0  0  0
 14 15  1  0  0  0
 15 17  1  0  0  0
 15 46  1  0  0  0
 15 47  1  0  0  0
 16 18  1  0  0  0
 16 48  1  0  0  0
 16 49  1  0  0  0
 17 19  1  0  0  0
 17 24  1  0  0  0
 18 19  1  0  0  0
 18 50  1  0  0  0
 18 51  1  0  0  0
 19 20  1  0  0  0
 19 52  1  0  0  0
 20 53  1  0  0  0
 20 54  1  0  0  0
 20 55  1  0  0  0
 22 24  2  0  0  0
 23 24  2  0  0  0
 24 25  1  0  0  0
 25 26  2  0  0  0
 25 30  1  0  0  0
 26 27  1  0  0  0
 27 28  2  0  0  0
 27 56  1  0  0  0
 28 29  1  0  0  0
 28 57  1  0  0  0
 29 30  2  0  0  0
 29 58  1  0  0  0
 30 59  1  0  0  0
 31 32  1  0  0  0
 31 60  1  0  0  0
 31 61  1  0  0  0
 32 33  1  0  0  0
 32 37  1  0  0  0
 32 38  1  0  0  0
 33 34  1  0  0  0
 33 62  1  0  0  0
 33 63  1  0  0  0
 34 35  1  0  0  0
 34 64  1  0  0  0
 34 65  1  0  0  0
 35 36  1  0  0  0
 35 66  1  0  0  0
 35 67  1  0  0  0
 36 37  1  0  0  0
 36 68  1  0  0  0
 36 69  1  0  0  0
 37 70  1  0  0  0
 37 71  1  0  0  0
 38 72  1  0  0  0
 38 73  1  0  0  0
 38 74  1  0  0  0
M  END
> <chembl_id>
CHEMBL1807696

> <chembl_pref_name>
None

> <i_m_ct_stereo_status>
1

> <s_m_source_file>
sdf/inactives_sanitized.sdf

> <i_m_source_file_index>
346

> <i_lp_mmshare_version>
49012

> <i_f3d_flags>
0

> <s_epik_input>
W2NIXTFbY0hdW2NIXW9jMUMoPU8pW05IXVtDQEhdKFtDSDJdQzIoW0NIM10pW0NIMl1bQ0gyXVtDSDJdW0NIMl1bQ0gyXTIpQyg9TylbTkhdW0NAQEhdM0MoPU8pW0NIMl1OKFtDQEhdKFtDSDNdKVtDSDJdW0NIMl0zKVMoPU8pKD1PKWM0bltjSF1bY0hdW2NIXVtjSF00

> <s_epik_cmdline>
J2VwaWtfcHl0aG9uJywgJy1waHQnLCAnMC41JywgJy1waCcsICc3LjUnLCAnLW50JywgJy1tYScsICcyMDAnLCAnLWltYWUnLCAnPGluZmlsZS5tYWU+JywgJy1vbWFlJywgJzxvdXRmaWxlLm1hZT4n

> <r_lp_tautomer_probability>
1

> <r_epik_Ionization_Penalty>
  0.0000

> <r_epik_Ionization_Penalty_Charging>
  0.0000

> <r_epik_Ionization_Penalty_Neutral>
  0.0000

> <r_epik_State_Penalty>
 -0.0000

> <r_epik_Charging_Adjusted_Penalty>
0

> <i_epik_Tot_Q>
0

> <i_epik_Tot_abs_Q>
0

> <s_lp_Force_Field>
OPLS3e

> <r_lp_Energy>
46.944336

> <b_lp_Chiralities_Consistent>
1

> <s_lp_Variant>
sdf/inactives_sanitized.sdf:346-1

$$$$
sdf/inactives_sanitized.sdf:347
                    3D
 Schrodinger Suite 2020-1.
 35 36  0  0  1  0            999 V2000
   -5.9630    1.1984   -3.8842 C   0  0  0  0  0  0
   -5.2707    0.3246   -4.7207 C   0  0  0  0  0  0
   -4.3283   -0.5607   -4.2009 C   0  0  0  0  0  0
   -4.0725   -0.5704   -2.8322 C   0  0  0  0  0  0
   -4.7578    0.3121   -1.9922 C   0  0  0  0  0  0
   -5.7091    1.1890   -2.5150 C   0  0  0  0  0  0
   -4.4636    0.3114   -0.2436 S   0  0  0  0  0  0
   -2.7060    0.1374   -0.0948 C   0  0  0  0  0  0
   -1.8459    0.8759   -0.9080 C   0  0  0  0  0  0
   -0.4684    0.7315   -0.7692 C   0  0  0  0  0  0
    0.0657   -0.1483    0.1823 C   0  0  0  0  0  0
   -0.8132   -0.8681    1.0047 C   0  0  0  0  0  0
   -2.1912   -0.7258    0.8691 C   0  0  0  0  0  0
    1.5352   -0.2968    0.3293 C   0  0  0  0  0  0
    2.2945    1.0195    0.4407 C   0  0  0  0  0  0
    2.2183   -1.3814    0.3193 N   0  0  0  0  0  0
    1.5471   -2.5324    0.0650 N   0  0  0  0  0  0
    2.1061   -3.7773    0.0314 C   0  0  0  0  0  0
    1.2236   -4.7615   -0.2455 N   0  0  0  0  0  0
    3.7075   -4.1722    0.2905 S   0  0  0  0  0  0
   -6.6940    1.8789   -4.2956 H   0  0  0  0  0  0
   -5.4689    0.3314   -5.7824 H   0  0  0  0  0  0
   -3.8007   -1.2383   -4.8561 H   0  0  0  0  0  0
   -3.3467   -1.2630   -2.4313 H   0  0  0  0  0  0
   -6.2478    1.8640   -1.8657 H   0  0  0  0  0  0
   -2.2382    1.5602   -1.6463 H   0  0  0  0  0  0
    0.1788    1.3068   -1.4158 H   0  0  0  0  0  0
   -0.4329   -1.5408    1.7606 H   0  0  0  0  0  0
   -2.8539   -1.2877    1.5114 H   0  0  0  0  0  0
    2.4014    1.4862   -0.5387 H   0  0  0  0  0  0
    3.3076    0.8765    0.8210 H   0  0  0  0  0  0
    1.7840    1.7253    1.0972 H   0  0  0  0  0  0
    0.5570   -2.4228   -0.1010 H   0  0  0  0  0  0
    0.2525   -4.5382   -0.4096 H   0  0  0  0  0  0
    1.5426   -5.7189   -0.2893 H   0  0  0  0  0  0
  1  2  2  0  0  0
  1  6  1  0  0  0
  1 21  1  0  0  0
  2  3  1  0  0  0
  2 22  1  0  0  0
  3  4  2  0  0  0
  3 23  1  0  0  0
  4  5  1  0  0  0
  4 24  1  0  0  0
  5  6  2  0  0  0
  5  7  1  0  0  0
  6 25  1  0  0  0
  7  8  1  0  0  0
  8  9  2  0  0  0
  8 13  1  0  0  0
  9 10  1  0  0  0
  9 26  1  0  0  0
 10 11  2  0  0  0
 10 27  1  0  0  0
 11 12  1  0  0  0
 11 14  1  0  0  0
 12 13  2  0  0  0
 12 28  1  0  0  0
 13 29  1  0  0  0
 14 15  1  0  0  0
 14 16  2  0  0  0
 15 30  1  0  0  0
 15 31  1  0  0  0
 15 32  1  0  0  0
 16 17  1  0  0  0
 17 18  1  0  0  0
 17 33  1  0  0  0
 18 19  1  0  0  0
 18 20  2  0  0  0
 19 34  1  0  0  0
 19 35  1  0  0  0
M  END
> <chembl_id>
CHEMBL2316603

> <chembl_pref_name>
None

> <s_m_source_file>
sdf/inactives_sanitized.sdf

> <i_m_source_file_index>
347

> <i_lp_mmshare_version>
49012

> <i_m_ct_stereo_status>
1

> <i_f3d_flags>
0

> <s_epik_input>
W2NIXTFbY0hdW2NIXVtjSF1bY0hdYzFTYzJbY0hdW2NIXWMoW2NIXVtjSF0yKS9DKFtDSDNdKT1OXFtOSF1DKD1TKVtOSDJd

> <s_epik_cmdline>
J2VwaWtfcHl0aG9uJywgJy1waHQnLCAnMC41JywgJy1waCcsICc3LjUnLCAnLW50JywgJy1tYScsICcyMDAnLCAnLWltYWUnLCAnPGluZmlsZS5tYWU+JywgJy1vbWFlJywgJzxvdXRmaWxlLm1hZT4n

> <r_lp_tautomer_probability>
1

> <r_epik_Ionization_Penalty>
  0.0000

> <r_epik_Ionization_Penalty_Charging>
  0.0000

> <r_epik_Ionization_Penalty_Neutral>
  0.0000

> <r_epik_State_Penalty>
 -0.0000

> <r_epik_Charging_Adjusted_Penalty>
0

> <i_epik_Tot_Q>
0

> <i_epik_Tot_abs_Q>
0

> <s_epik_Chemistry_Notes>
This compound has an imine and may undergo hydrolysis.

> <s_lp_Force_Field>
OPLS3e

> <r_lp_Energy>
44.363619

> <b_lp_Chiralities_Consistent>
1

> <s_lp_Variant>
sdf/inactives_sanitized.sdf:347-1

$$$$
sdf/inactives_sanitized.sdf:348
                    3D
 Schrodinger Suite 2020-1.
 32 31  0  0  1  0            999 V2000
   -0.7000    0.0043    0.2979 C   0  0  0  0  0  0
   -1.9828   -0.7108    0.2401 C   0  0  0  0  0  0
   -0.5000    0.8437   -0.6479 N   0  0  0  0  0  0
    0.2161   -0.3522    1.4991 C   0  0  0  0  0  0
    1.4310   -1.2231    1.1212 C   0  0  0  0  0  0
    2.2971   -1.3287    2.1545 O   0  0  0  0  0  0
    1.5714   -1.7495    0.0128 O   0  0  0  0  0  0
    3.5111   -2.0674    2.0399 C   0  0  0  0  0  0
    4.6059   -1.2617    1.3220 C   0  0  0  0  0  0
   -1.9225   -1.9707    0.7528 O   0  0  0  0  0  0
   -3.0116   -0.2172   -0.2355 O   0  0  0  0  0  0
   -3.0544   -2.8378    0.7633 C   0  0  0  0  0  0
   -3.2725   -3.5087   -0.6020 C   0  0  0  0  0  0
    0.6762    1.5115   -0.5894 N   0  0  0  0  0  0
    1.1038    2.4301   -1.5041 C   0  0  0  0  0  0
    2.3175    2.9518   -1.2232 N   0  0  0  0  0  0
    0.2984    2.9406   -2.8748 S   0  0  0  0  0  0
    0.5872    0.5672    1.9529 H   0  0  0  0  0  0
   -0.3387   -0.8620    2.2877 H   0  0  0  0  0  0
    3.8494   -2.3089    3.0477 H   0  0  0  0  0  0
    3.3387   -3.0203    1.5362 H   0  0  0  0  0  0
    5.5395   -1.8236    1.2894 H   0  0  0  0  0  0
    4.8025   -0.3206    1.8363 H   0  0  0  0  0  0
    4.3244   -1.0305    0.2943 H   0  0  0  0  0  0
   -2.8760   -3.6075    1.5143 H   0  0  0  0  0  0
   -3.9507   -2.3006    1.0785 H   0  0  0  0  0  0
   -4.1085   -4.2068   -0.5597 H   0  0  0  0  0  0
   -2.3883   -4.0669   -0.9112 H   0  0  0  0  0  0
   -3.4942   -2.7749   -1.3774 H   0  0  0  0  0  0
    1.2652    1.2745    0.1956 H   0  0  0  0  0  0
    2.8177    2.6526   -0.3989 H   0  0  0  0  0  0
    2.7198    3.6394   -1.8439 H   0  0  0  0  0  0
  1  2  1  0  0  0
  1  3  2  0  0  0
  1  4  1  0  0  0
  2 10  1  0  0  0
  2 11  2  0  0  0
  3 14  1  0  0  0
  4  5  1  0  0  0
  4 18  1  0  0  0
  4 19  1  0  0  0
  5  6  1  0  0  0
  5  7  2  0  0  0
  6  8  1  0  0  0
  8  9  1  0  0  0
  8 20  1  0  0  0
  8 21  1  0  0  0
  9 22  1  0  0  0
  9 23  1  0  0  0
  9 24  1  0  0  0
 10 12  1  0  0  0
 12 13  1  0  0  0
 12 25  1  0  0  0
 12 26  1  0  0  0
 13 27  1  0  0  0
 13 28  1  0  0  0
 13 29  1  0  0  0
 14 15  1  0  0  0
 14 30  1  0  0  0
 15 16  1  0  0  0
 15 17  2  0  0  0
 16 31  1  0  0  0
 16 32  1  0  0  0
M  END
> <chembl_id>
CHEMBL2316601

> <chembl_pref_name>
None

> <s_m_source_file>
sdf/inactives_sanitized.sdf

> <i_m_source_file_index>
348

> <i_lp_mmshare_version>
49012

> <i_m_ct_stereo_status>
1

> <i_f3d_flags>
0

> <s_epik_input>
W0NIM11bQ0gyXU9DKD1PKS9DKD1OL1tOSF1DKD1TKVtOSDJdKVtDSDJdQyg9TylPW0NIMl1bQ0gzXQ==

> <s_epik_cmdline>
J2VwaWtfcHl0aG9uJywgJy1waHQnLCAnMC41JywgJy1waCcsICc3LjUnLCAnLW50JywgJy1tYScsICcyMDAnLCAnLWltYWUnLCAnPGluZmlsZS5tYWU+JywgJy1vbWFlJywgJzxvdXRmaWxlLm1hZT4n

> <r_lp_tautomer_probability>
1

> <r_epik_Ionization_Penalty>
  0.0038

> <r_epik_Ionization_Penalty_Charging>
  0.0000

> <r_epik_Ionization_Penalty_Neutral>
  0.0038

> <r_epik_State_Penalty>
 -0.0000

> <r_epik_Charging_Adjusted_Penalty>
0

> <i_epik_Tot_Q>
0

> <i_epik_Tot_abs_Q>
0

> <s_epik_Chemistry_Notes>
This compound has an ester and may undergo hydrolysis at high or low pH. This compound has an imine and may undergo hydrolysis.

> <s_lp_Force_Field>
OPLS3e

> <r_lp_Energy>
24.527592

> <b_lp_Chiralities_Consistent>
1

> <s_lp_Variant>
sdf/inactives_sanitized.sdf:348-1

$$$$
sdf/inactives_sanitized.sdf:349
                    3D
 Schrodinger Suite 2020-1.
 39 38  0  0  1  0            999 V2000
   -0.7007    1.2721   -0.1016 C   0  0  0  0  0  0
    0.0237    0.0842   -0.1191 N   0  0  0  0  0  0
   -2.0234    0.9692   -0.0082 O   0  0  0  0  0  0
   -0.2326    2.4107   -0.1618 O   0  0  0  0  0  0
   -3.0990    1.9257    0.0341 C   0  0  0  0  0  0
    1.4928    0.0706   -0.2685 C   0  0  1  0  0  0
    3.6317   -1.3943    0.5351 C   0  0  0  0  0  0
    1.0223    0.1111   -2.6749 O   0  0  0  0  0  0
    2.0814   -1.2151    0.3870 C   0  0  0  0  0  0
    1.8364    0.1756   -1.7514 C   0  0  0  0  0  0
   -3.1568    2.7713   -1.2627 C   0  0  0  0  0  0
   -2.9970    2.8337    1.2846 C   0  0  0  0  0  0
   -4.3726    1.0614    0.1346 C   0  0  0  0  0  0
    4.2806   -1.9172   -0.7709 C   0  0  0  0  0  0
    3.8867   -2.4574    1.6325 C   0  0  0  0  0  0
    4.3231   -0.0804    0.9687 C   0  0  0  0  0  0
   -0.4701   -0.7963   -0.1245 H   0  0  0  0  0  0
    1.9007    0.9367    0.2557 H   0  0  0  0  0  0
    1.6586   -2.0984   -0.0973 H   0  0  0  0  0  0
    1.6546   -1.2458    1.3920 H   0  0  0  0  0  0
    2.8932    0.3314   -1.9580 H   0  0  0  0  0  0
   -4.0480    3.3996   -1.2874 H   0  0  0  0  0  0
   -3.1796    2.1356   -2.1486 H   0  0  0  0  0  0
   -2.2962    3.4322   -1.3639 H   0  0  0  0  0  0
   -2.1368    3.5016    1.2406 H   0  0  0  0  0  0
   -2.8993    2.2419    2.1955 H   0  0  0  0  0  0
   -3.8836    3.4594    1.3945 H   0  0  0  0  0  0
   -5.2732    1.6753    0.1771 H   0  0  0  0  0  0
   -4.3610    0.4347    1.0277 H   0  0  0  0  0  0
   -4.4713    0.3938   -0.7228 H   0  0  0  0  0  0
    5.3139   -2.2258   -0.6055 H   0  0  0  0  0  0
    4.3153   -1.1675   -1.5580 H   0  0  0  0  0  0
    3.7477   -2.7833   -1.1658 H   0  0  0  0  0  0
    3.4132   -3.4091    1.3863 H   0  0  0  0  0  0
    3.4938   -2.1408    2.5999 H   0  0  0  0  0  0
    4.9514   -2.6525    1.7701 H   0  0  0  0  0  0
    5.3840   -0.2343    1.1711 H   0  0  0  0  0  0
    3.8746    0.3267    1.8760 H   0  0  0  0  0  0
    4.2577    0.6875    0.1974 H   0  0  0  0  0  0
  1  2  1  0  0  0
  1  3  1  0  0  0
  1  4  2  0  0  0
  2  6  1  0  0  0
  2 17  1  0  0  0
  3  5  1  0  0  0
  5 11  1  0  0  0
  5 12  1  0  0  0
  5 13  1  0  0  0
  6  9  1  0  0  0
  6 10  1  0  0  0
  6 18  1  0  0  0
  7  9  1  0  0  0
  7 14  1  0  0  0
  7 15  1  0  0  0
  7 16  1  0  0  0
  8 10  2  0  0  0
  9 19  1  0  0  0
  9 20  1  0  0  0
 10 21  1  0  0  0
 11 22  1  0  0  0
 11 23  1  0  0  0
 11 24  1  0  0  0
 12 25  1  0  0  0
 12 26  1  0  0  0
 12 27  1  0  0  0
 13 28  1  0  0  0
 13 29  1  0  0  0
 13 30  1  0  0  0
 14 31  1  0  0  0
 14 32  1  0  0  0
 14 33  1  0  0  0
 15 34  1  0  0  0
 15 35  1  0  0  0
 15 36  1  0  0  0
 16 37  1  0  0  0
 16 38  1  0  0  0
 16 39  1  0  0  0
M  END
> <chembl_id>
CHEMBL94150

> <chembl_pref_name>
None

> <i_m_ct_stereo_status>
1

> <s_m_source_file>
sdf/inactives_sanitized.sdf

> <i_m_source_file_index>
349

> <i_lp_mmshare_version>
49012

> <i_f3d_flags>
0

> <s_epik_input>
W0NIM11DKFtDSDNdKShbQ0gzXSlPQyg9TylbTkhdW0NASF0oW0NIXT1PKVtDSDJdQyhbQ0gzXSkoW0NIM10pW0NIM10=

> <s_epik_cmdline>
J2VwaWtfcHl0aG9uJywgJy1waHQnLCAnMC41JywgJy1waCcsICc3LjUnLCAnLW50JywgJy1tYScsICcyMDAnLCAnLWltYWUnLCAnPGluZmlsZS5tYWU+JywgJy1vbWFlJywgJzxvdXRmaWxlLm1hZT4n

> <r_lp_tautomer_probability>
1

> <r_epik_Ionization_Penalty>
  0.0003

> <r_epik_Ionization_Penalty_Charging>
  0.0000

> <r_epik_Ionization_Penalty_Neutral>
  0.0003

> <r_epik_State_Penalty>
 -0.0000

> <r_epik_Charging_Adjusted_Penalty>
0

> <i_epik_Tot_Q>
0

> <i_epik_Tot_abs_Q>
0

> <s_epik_Chemistry_Notes>
This compound has an ester and may undergo hydrolysis at high or low pH.

> <s_lp_Force_Field>
OPLS3e

> <r_lp_Energy>
15.40163

> <b_lp_Chiralities_Consistent>
1

> <s_lp_Variant>
sdf/inactives_sanitized.sdf:349-1

$$$$
sdf/inactives_sanitized.sdf:350
                    3D
 Schrodinger Suite 2020-1.
 74 76  0  0  1  0            999 V2000
    9.5298   -0.8606    9.0129 C   0  0  0  0  0  0
    8.6774   -0.5194    7.9446 N   0  0  0  0  0  0
    7.0148   -0.0950    5.5950 N   0  0  0  0  0  0
    0.0165    0.1048   -0.0421 C   0  0  1  0  0  0
   -0.3002   -1.0520   -1.0178 C   0  0  0  0  0  0
    1.5043    0.4794   -0.1153 C   0  0  0  0  0  0
   -3.2071   -3.4347   -2.1698 N   0  0  0  0  0  0
    8.8279   -1.1588   10.1545 O   0  0  0  0  0  0
    2.3301    0.2841    0.9994 C   0  0  0  0  0  0
    3.6932    0.6192    0.9754 C   0  0  0  0  0  0
    6.2050    0.0500    4.4620 C   0  0  0  0  0  0
   -2.1241   -3.4562   -1.7627 C   0  0  0  0  0  0
   10.7602   -0.9159    8.9430 O   0  0  0  0  0  0
    4.5595    0.4174    2.1781 C   0  0  0  0  0  0
    9.2878    0.1076    6.7687 C   0  0  0  0  0  0
    7.2264   -0.3786    8.1360 C   0  0  0  0  0  0
    8.4790   -0.2353    5.4994 C   0  0  0  0  0  0
    6.4925   -0.7222    6.8232 C   0  0  0  0  0  0
   -0.9005    1.3477   -0.2396 C   0  0  0  0  0  0
   -0.4447   -0.8317   -2.2215 O   0  0  0  0  0  0
    9.3988   -1.5535   11.4155 C   0  0  0  0  0  0
    4.8489    0.3850    4.5896 C   0  0  0  0  0  0
    6.7221   -0.0843    3.1638 C   0  0  0  0  0  0
    5.9138    0.0925    2.0443 C   0  0  0  0  0  0
    4.0407    0.5595    3.4698 C   0  0  0  0  0  0
   -0.4043   -2.2822   -0.4857 N   0  0  0  0  0  0
   -0.7453   -3.4834   -1.2430 C   0  0  0  0  0  0
    2.0593    1.0253   -1.2796 C   0  0  0  0  0  0
    4.2171    1.1571   -0.2094 C   0  0  0  0  0  0
    3.4096    1.3594   -1.3266 C   0  0  0  0  0  0
   -2.4301    1.1160   -0.1023 C   0  0  0  0  0  0
   10.3089   -0.4432   11.9974 C   0  0  0  0  0  0
   10.1652   -2.8936   11.2922 C   0  0  0  0  0  0
    8.1784   -1.7471   12.3388 C   0  0  0  0  0  0
   -3.2089    2.4089   -0.4073 C   0  0  0  0  0  0
   -2.8326    0.5513    1.2741 C   0  0  0  0  0  0
   -0.1652   -0.2592    0.9707 H   0  0  0  0  0  0
    1.9037   -0.1426    1.8955 H   0  0  0  0  0  0
    9.2898    1.1877    6.9198 H   0  0  0  0  0  0
   10.3227   -0.2030    6.6162 H   0  0  0  0  0  0
    6.8385   -1.0369    8.9140 H   0  0  0  0  0  0
    7.0048    0.6476    8.4306 H   0  0  0  0  0  0
    8.8733    0.3579    4.6745 H   0  0  0  0  0  0
    8.6497   -1.2912    5.2814 H   0  0  0  0  0  0
    5.4252   -0.5635    6.9612 H   0  0  0  0  0  0
    6.6280   -1.7926    6.6571 H   0  0  0  0  0  0
   -0.6053    2.1112    0.4826 H   0  0  0  0  0  0
   -0.7053    1.7862   -1.2201 H   0  0  0  0  0  0
    4.3987    0.5444    5.5573 H   0  0  0  0  0  0
    7.7557   -0.3450    2.9944 H   0  0  0  0  0  0
    6.3540   -0.0362    1.0664 H   0  0  0  0  0  0
    3.0062    0.8316    3.6198 H   0  0  0  0  0  0
   -0.3191   -2.3891    0.5144 H   0  0  0  0  0  0
   -0.6468   -4.3530   -0.5933 H   0  0  0  0  0  0
   -0.0556   -3.6263   -2.0767 H   0  0  0  0  0  0
    1.4455    1.1897   -2.1532 H   0  0  0  0  0  0
    5.2577    1.4398   -0.2707 H   0  0  0  0  0  0
    3.8304    1.7799   -2.2280 H   0  0  0  0  0  0
   -2.7339    0.3862   -0.8543 H   0  0  0  0  0  0
   10.6225   -0.6799   13.0148 H   0  0  0  0  0  0
    9.7912    0.5163   12.0296 H   0  0  0  0  0  0
   11.2152   -0.3000   11.4094 H   0  0  0  0  0  0
   11.0659   -2.8015   10.6857 H   0  0  0  0  0  0
    9.5441   -3.6630   10.8316 H   0  0  0  0  0  0
   10.4746   -3.2655   12.2698 H   0  0  0  0  0  0
    8.4770   -2.0558   13.3413 H   0  0  0  0  0  0
    7.5001   -2.5084   11.9500 H   0  0  0  0  0  0
    7.6016   -0.8262   12.4379 H   0  0  0  0  0  0
   -2.9685    3.1976    0.3066 H   0  0  0  0  0  0
   -4.2861    2.2422   -0.3661 H   0  0  0  0  0  0
   -2.9785    2.7838   -1.4051 H   0  0  0  0  0  0
   -2.5063    1.2047    2.0841 H   0  0  0  0  0  0
   -2.4031   -0.4357    1.4460 H   0  0  0  0  0  0
   -3.9146    0.4405    1.3537 H   0  0  0  0  0  0
  1  2  1  0  0  0
  1  8  1  0  0  0
  1 13  2  0  0  0
  2 15  1  0  0  0
  2 16  1  0  0  0
  3 18  1  0  0  0
  3 11  1  0  0  0
  3 17  1  0  0  0
  4  6  1  0  0  0
  4  5  1  0  0  0
  4 19  1  0  0  0
  4 37  1  0  0  0
  5 20  2  0  0  0
  5 26  1  0  0  0
  6  9  2  0  0  0
  6 28  1  0  0  0
  7 12  3  0  0  0
  8 21  1  0  0  0
  9 10  1  0  0  0
  9 38  1  0  0  0
 10 14  1  0  0  0
 10 29  2  0  0  0
 11 22  2  0  0  0
 11 23  1  0  0  0
 12 27  1  0  0  0
 14 24  1  0  0  0
 14 25  2  0  0  0
 15 17  1  0  0  0
 15 39  1  0  0  0
 15 40  1  0  0  0
 16 18  1  0  0  0
 16 41  1  0  0  0
 16 42  1  0  0  0
 17 43  1  0  0  0
 17 44  1  0  0  0
 18 45  1  0  0  0
 18 46  1  0  0  0
 19 31  1  0  0  0
 19 47  1  0  0  0
 19 48  1  0  0  0
 21 32  1  0  0  0
 21 33  1  0  0  0
 21 34  1  0  0  0
 22 25  1  0  0  0
 22 49  1  0  0  0
 23 24  2  0  0  0
 23 50  1  0  0  0
 24 51  1  0  0  0
 25 52  1  0  0  0
 26 27  1  0  0  0
 26 53  1  0  0  0
 27 54  1  0  0  0
 27 55  1  0  0  0
 28 30  2  0  0  0
 28 56  1  0  0  0
 29 30  1  0  0  0
 29 57  1  0  0  0
 30 58  1  0  0  0
 31 35  1  0  0  0
 31 36  1  0  0  0
 31 59  1  0  0  0
 32 60  1  0  0  0
 32 61  1  0  0  0
 32 62  1  0  0  0
 33 63  1  0  0  0
 33 64  1  0  0  0
 33 65  1  0  0  0
 34 66  1  0  0  0
 34 67  1  0  0  0
 34 68  1  0  0  0
 35 69  1  0  0  0
 35 70  1  0  0  0
 35 71  1  0  0  0
 36 72  1  0  0  0
 36 73  1  0  0  0
 36 74  1  0  0  0
M  END
> <chembl_id>
CHEMBL122561

> <chembl_pref_name>
None

> <s_m_source_file>
sdf/inactives_sanitized.sdf

> <i_m_source_file_index>
350

> <i_lp_mmshare_version>
49012

> <i_m_ct_stereo_status>
1

> <i_f3d_flags>
0

> <s_epik_input>
W0NIM11DKFtDSDNdKShbQ0gzXSlPQyg9TylOMVtDSDJdW0NIMl1OKFtDSDJdW0NIMl0xKWMyW2NIXVtjSF1jKFtjSF1bY0hdMiktYyhbY0hdW2NIXVtjSF0zKVtjSF1jM1tDQEBIXShbQ0gyXVtDSF0oW0NIM10pW0NIM10pQyg9TylbTkhdW0NIMl1DI04=

> <s_epik_cmdline>
J2VwaWtfcHl0aG9uJywgJy1waHQnLCAnMC41JywgJy1waCcsICc3LjUnLCAnLW50JywgJy1tYScsICcyMDAnLCAnLWltYWUnLCAnPGluZmlsZS5tYWU+JywgJy1vbWFlJywgJzxvdXRmaWxlLm1hZT4n

> <r_lp_tautomer_probability>
1

> <r_epik_Ionization_Penalty>
  0.0000

> <r_epik_Ionization_Penalty_Charging>
  0.0000

> <r_epik_Ionization_Penalty_Neutral>
  0.0000

> <r_epik_State_Penalty>
 -0.0000

> <r_epik_Charging_Adjusted_Penalty>
0

> <i_epik_Tot_Q>
0

> <i_epik_Tot_abs_Q>
0

> <s_epik_Chemistry_Notes>
This compound has an ester and may undergo hydrolysis at high or low pH.

> <s_lp_Force_Field>
OPLS3e

> <r_lp_Energy>
56.812294

> <b_lp_Chiralities_Consistent>
1

> <s_lp_Variant>
sdf/inactives_sanitized.sdf:350-1

$$$$
sdf/inactives_sanitized.sdf:351
                    3D
 Schrodinger Suite 2020-1.
 51 54  0  0  1  0            999 V2000
   -4.6959    7.1604   -0.2763 O   0  0  0  0  0  0
    0.0681    0.0547    0.1167 O   0  0  0  0  0  0
    3.2774   -1.6764    0.0530 O   0  0  0  0  0  0
   -2.4258    5.3042   -2.5247 N   0  0  1  0  0  0
   -3.2542    5.4304   -1.2902 C   0  0  2  0  0  0
   -3.9870    6.8056   -1.2173 C   0  0  0  0  0  0
   -3.7131    7.6937   -2.4479 C   0  0  0  0  0  0
   -2.5405    5.1260    0.0550 C   0  0  0  0  0  0
   -3.3174    5.4428   -3.6955 C   0  0  0  0  0  0
   -1.4495    6.4130   -2.5791 C   0  0  0  0  0  0
   -4.0519    6.8230   -3.6998 C   0  0  0  0  0  0
   -2.1600    7.8043   -2.5707 C   0  0  0  0  0  0
   -1.8160    3.7851    0.0724 C   0  0  0  0  0  0
   -2.5500    2.5999    0.1412 C   0  0  0  0  0  0
   -0.4218    3.7384    0.0186 C   0  0  0  0  0  0
   -0.4976    1.3158    0.1001 C   0  0  0  0  0  0
   -1.8910    1.3739    0.1538 C   0  0  0  0  0  0
    0.2357    2.5113    0.0333 C   0  0  0  0  0  0
    1.4866   -0.0740    0.0640 C   0  0  0  0  0  0
    3.8578   -2.9299    0.0285 C   0  0  0  0  0  0
    1.8570   -1.5614    0.0702 C   0  0  0  0  0  0
    5.2534   -2.9666    0.0026 C   0  0  0  0  0  0
    3.1382   -4.1365    0.0274 C   0  0  0  0  0  0
    5.9290   -4.1835   -0.0272 C   0  0  0  0  0  0
    3.8131   -5.3543   -0.0023 C   0  0  0  0  0  0
    5.2052   -5.3728   -0.0302 C   0  0  0  0  0  0
   -4.0503    4.6898   -1.3822 H   0  0  0  0  0  0
   -4.2322    8.6518   -2.4106 H   0  0  0  0  0  0
   -1.8352    5.9212    0.3043 H   0  0  0  0  0  0
   -3.2618    5.1224    0.8744 H   0  0  0  0  0  0
   -2.7367    5.3230   -4.6116 H   0  0  0  0  0  0
   -4.0421    4.6269   -3.7055 H   0  0  0  0  0  0
   -0.7492    6.3372   -1.7469 H   0  0  0  0  0  0
   -0.8370    6.3112   -3.4764 H   0  0  0  0  0  0
   -5.1306    6.6619   -3.7421 H   0  0  0  0  0  0
   -3.7944    7.3732   -4.6066 H   0  0  0  0  0  0
   -1.9048    8.3521   -3.4796 H   0  0  0  0  0  0
   -1.7776    8.4025   -1.7416 H   0  0  0  0  0  0
   -3.6294    2.6272    0.1816 H   0  0  0  0  0  0
    0.1554    4.6499   -0.0372 H   0  0  0  0  0  0
   -2.4667    0.4612    0.2050 H   0  0  0  0  0  0
    1.3141    2.5087   -0.0088 H   0  0  0  0  0  0
    1.8771    0.3931   -0.8422 H   0  0  0  0  0  0
    1.9440    0.4222    0.9222 H   0  0  0  0  0  0
    1.4239   -2.0493   -0.8051 H   0  0  0  0  0  0
    1.4475   -2.0408    0.9613 H   0  0  0  0  0  0
    5.8171   -2.0451    0.0043 H   0  0  0  0  0  0
    2.0590   -4.1483    0.0488 H   0  0  0  0  0  0
    7.0087   -4.2044   -0.0483 H   0  0  0  0  0  0
    3.2588   -6.2814   -0.0041 H   0  0  0  0  0  0
    5.7279   -6.3177   -0.0541 H   0  0  0  0  0  0
  1  6  2  0  0  0
  2 16  1  0  0  0
  2 19  1  0  0  0
  3 20  1  0  0  0
  3 21  1  0  0  0
  4  5  1  0  0  0
  4  9  1  0  0  0
  4 10  1  0  0  0
  5  6  1  0  0  0
  5  8  1  0  0  0
  5 27  1  0  0  0
  6  7  1  0  0  0
  7 11  1  0  0  0
  7 12  1  0  0  0
  7 28  1  0  0  0
  8 13  1  0  0  0
  8 29  1  0  0  0
  8 30  1  0  0  0
  9 11  1  0  0  0
  9 31  1  0  0  0
  9 32  1  0  0  0
 10 12  1  0  0  0
 10 33  1  0  0  0
 10 34  1  0  0  0
 11 35  1  0  0  0
 11 36  1  0  0  0
 12 37  1  0  0  0
 12 38  1  0  0  0
 13 14  2  0  0  0
 13 15  1  0  0  0
 14 17  1  0  0  0
 14 39  1  0  0  0
 15 18  2  0  0  0
 15 40  1  0  0  0
 16 17  2  0  0  0
 16 18  1  0  0  0
 17 41  1  0  0  0
 18 42  1  0  0  0
 19 21  1  0  0  0
 19 43  1  0  0  0
 19 44  1  0  0  0
 20 22  2  0  0  0
 20 23  1  0  0  0
 21 45  1  0  0  0
 21 46  1  0  0  0
 22 24  1  0  0  0
 22 47  1  0  0  0
 23 25  2  0  0  0
 23 48  1  0  0  0
 24 26  2  0  0  0
 24 49  1  0  0  0
 25 26  1  0  0  0
 25 50  1  0  0  0
 26 51  1  0  0  0
M  END
> <chembl_id>
CHEMBL1620957

> <chembl_pref_name>
None

> <s_m_source_file>
sdf/inactives_sanitized.sdf

> <i_m_source_file_index>
351

> <i_lp_mmshare_version>
49012

> <i_m_ct_stereo_status>
1

> <i_f3d_flags>
0

> <s_epik_input>
W0NIMl0xW0NIMl1bQ0hdKFtDSDJdW0NIMl0yKUMoPU8pW0NAQEhdKE4xMilbQ0gyXWMzW2NIXVtjSF1jKFtjSF1bY0hdMylPW0NIMl1bQ0gyXU9jNFtjSF1bY0hdW2NIXVtjSF1bY0hdNA==

> <s_epik_cmdline>
J2VwaWtfcHl0aG9uJywgJy1waHQnLCAnMC41JywgJy1waCcsICc3LjUnLCAnLW50JywgJy1tYScsICcyMDAnLCAnLWltYWUnLCAnPGluZmlsZS5tYWU+JywgJy1vbWFlJywgJzxvdXRmaWxlLm1hZT4n

> <r_lp_tautomer_probability>
1

> <r_epik_Ionization_Penalty>
  0.1738

> <r_epik_Ionization_Penalty_Charging>
  0.0000

> <r_epik_Ionization_Penalty_Neutral>
  0.1738

> <r_epik_State_Penalty>
  0.1632

> <r_epik_Charging_Adjusted_Penalty>
0.163217500132435

> <i_epik_Tot_Q>
0

> <i_epik_Tot_abs_Q>
0

> <s_lp_Force_Field>
OPLS3e

> <r_lp_Energy>
42.059575

> <b_lp_Chiralities_Consistent>
1

> <s_lp_Variant>
sdf/inactives_sanitized.sdf:351-1

$$$$
sdf/inactives_sanitized.sdf:352
                    3D
 Schrodinger Suite 2020-1.
 58 58  0  0  1  0            999 V2000
    2.0094    0.4560   -1.6297 C   0  0  0  0  0  0
   -0.7816    1.1303   -0.4976 C   0  0  0  0  0  0
    3.2174    1.4717   -1.5045 C   0  0  0  0  0  0
   -0.0474   -0.0493   -0.3769 N   0  0  0  0  0  0
    4.2498    6.7395   -1.9136 N   0  0  0  0  0  0
    3.9697    4.5447   -2.2984 C   0  0  0  0  0  0
    1.4294   -0.0462   -0.2991 C   0  0  1  0  0  0
   -2.0981    0.8233   -0.4837 O   0  0  0  0  0  0
    4.8336    5.5842   -2.4382 O   0  0  0  0  0  0
   -3.1217    1.8190   -0.6170 C   0  0  0  0  0  0
    3.4368    2.1475   -2.6480 N   0  0  0  0  0  0
    2.8233    5.0150   -1.6875 C   0  0  0  0  0  0
    1.5490    0.1535   -2.7360 O   0  0  0  0  0  0
   -0.3248    2.2724   -0.5948 O   0  0  0  0  0  0
    3.8388    1.6146   -0.4504 O   0  0  0  0  0  0
    3.0681    6.3673   -1.4802 C   0  0  0  0  0  0
    4.4411    3.1974   -2.8138 C   0  0  0  0  0  0
   -4.1221    1.6421    0.5651 C   0  0  0  0  0  0
   -3.7419    1.7519   -2.0490 C   0  0  0  0  0  0
    1.9509   -1.4718    0.0242 C   0  0  0  0  0  0
   -2.6940    2.0018   -3.1550 C   0  0  0  0  0  0
   -4.9286    2.7204   -2.2373 C   0  0  0  0  0  0
   -3.4420    1.8789    1.9289 C   0  0  0  0  0  0
   -4.8680    0.2910    0.5513 C   0  0  0  0  0  0
    3.4612   -1.5718    0.3299 C   0  0  0  0  0  0
    3.8912   -2.9823    0.7689 C   0  0  0  0  0  0
    5.3929   -3.0815    1.0700 C   0  0  0  0  0  0
   -0.5255   -0.8504    0.0087 H   0  0  0  0  0  0
    1.6877    0.5923    0.5495 H   0  0  0  0  0  0
   -2.6962    2.8184   -0.5033 H   0  0  0  0  0  0
    2.8613    1.9390   -3.4516 H   0  0  0  0  0  0
    1.9371    4.4552   -1.4257 H   0  0  0  0  0  0
    2.3897    7.0692   -1.0178 H   0  0  0  0  0  0
    4.6725    3.2678   -3.8768 H   0  0  0  0  0  0
    5.3808    2.9037   -2.3418 H   0  0  0  0  0  0
   -4.8745    2.4264    0.4820 H   0  0  0  0  0  0
   -4.1233    0.7421   -2.2060 H   0  0  0  0  0  0
    1.4042   -1.8445    0.8925 H   0  0  0  0  0  0
    1.6940   -2.1556   -0.7879 H   0  0  0  0  0  0
   -2.2200    2.9776   -3.0422 H   0  0  0  0  0  0
   -3.1459    1.9661   -4.1469 H   0  0  0  0  0  0
   -1.9070    1.2476   -3.1442 H   0  0  0  0  0  0
   -4.6406    3.7502   -2.0225 H   0  0  0  0  0  0
   -5.7687    2.4655   -1.5917 H   0  0  0  0  0  0
   -5.3059    2.6902   -3.2603 H   0  0  0  0  0  0
   -2.6899    1.1186    2.1430 H   0  0  0  0  0  0
   -4.1685    1.8587    2.7421 H   0  0  0  0  0  0
   -2.9477    2.8506    1.9602 H   0  0  0  0  0  0
   -4.1782   -0.5498    0.6311 H   0  0  0  0  0  0
   -5.4479    0.1598   -0.3620 H   0  0  0  0  0  0
   -5.5686    0.2207    1.3842 H   0  0  0  0  0  0
    4.0367   -1.2886   -0.5521 H   0  0  0  0  0  0
    3.7197   -0.8573    1.1130 H   0  0  0  0  0  0
    3.3299   -3.2778    1.6565 H   0  0  0  0  0  0
    3.6346   -3.7024   -0.0094 H   0  0  0  0  0  0
    5.6617   -4.0914    1.3809 H   0  0  0  0  0  0
    5.6816   -2.4011    1.8720 H   0  0  0  0  0  0
    5.9899   -2.8360    0.1910 H   0  0  0  0  0  0
  1  3  1  0  0  0
  1  7  1  0  0  0
  1 13  2  0  0  0
  2  4  1  0  0  0
  2  8  1  0  0  0
  2 14  2  0  0  0
  3 11  1  0  0  0
  3 15  2  0  0  0
  4  7  1  0  0  0
  4 28  1  0  0  0
  5  9  1  0  0  0
  5 16  2  0  0  0
  6 17  1  0  0  0
  6  9  1  0  0  0
  6 12  2  0  0  0
  7 20  1  0  0  0
  7 29  1  0  0  0
  8 10  1  0  0  0
 10 18  1  0  0  0
 10 19  1  0  0  0
 10 30  1  0  0  0
 11 17  1  0  0  0
 11 31  1  0  0  0
 12 16  1  0  0  0
 12 32  1  0  0  0
 16 33  1  0  0  0
 17 34  1  0  0  0
 17 35  1  0  0  0
 18 23  1  0  0  0
 18 24  1  0  0  0
 18 36  1  0  0  0
 19 21  1  0  0  0
 19 22  1  0  0  0
 19 37  1  0  0  0
 20 25  1  0  0  0
 20 38  1  0  0  0
 20 39  1  0  0  0
 21 40  1  0  0  0
 21 41  1  0  0  0
 21 42  1  0  0  0
 22 43  1  0  0  0
 22 44  1  0  0  0
 22 45  1  0  0  0
 23 46  1  0  0  0
 23 47  1  0  0  0
 23 48  1  0  0  0
 24 49  1  0  0  0
 24 50  1  0  0  0
 24 51  1  0  0  0
 25 26  1  0  0  0
 25 52  1  0  0  0
 25 53  1  0  0  0
 26 27  1  0  0  0
 26 54  1  0  0  0
 26 55  1  0  0  0
 27 56  1  0  0  0
 27 57  1  0  0  0
 27 58  1  0  0  0
M  END
> <chembl_id>
CHEMBL421544

> <chembl_pref_name>
None

> <i_m_ct_stereo_status>
1

> <s_m_source_file>
sdf/inactives_sanitized.sdf

> <i_m_source_file_index>
352

> <i_lp_mmshare_version>
49012

> <i_f3d_flags>
0

> <s_epik_input>
W0NIM11bQ0hdKFtDSDNdKVtDSF0oW0NIXShbQ0gzXSlbQ0gzXSlPQyg9TylbTkhdW0NAQEhdKFtDSDJdW0NIMl1bQ0gyXVtDSDNdKUMoPU8pQyg9TylbTkhdW0NIMl1jMW9uW2NIXVtjSF0x

> <s_epik_cmdline>
J2VwaWtfcHl0aG9uJywgJy1waHQnLCAnMC41JywgJy1waCcsICc3LjUnLCAnLW50JywgJy1tYScsICcyMDAnLCAnLWltYWUnLCAnPGluZmlsZS5tYWU+JywgJy1vbWFlJywgJzxvdXRmaWxlLm1hZT4n

> <r_lp_tautomer_probability>
1

> <r_epik_Ionization_Penalty>
  0.0000

> <r_epik_Ionization_Penalty_Charging>
  0.0000

> <r_epik_Ionization_Penalty_Neutral>
  0.0000

> <r_epik_State_Penalty>
 -0.0000

> <r_epik_Charging_Adjusted_Penalty>
0

> <i_epik_Tot_Q>
0

> <i_epik_Tot_abs_Q>
0

> <s_epik_Chemistry_Notes>
This compound has an ester and may undergo hydrolysis at high or low pH.

> <s_lp_Force_Field>
OPLS3e

> <r_lp_Energy>
18.713922

> <b_lp_Chiralities_Consistent>
1

> <s_lp_Variant>
sdf/inactives_sanitized.sdf:352-1

$$$$
sdf/inactives_sanitized.sdf:353
                    3D
 Schrodinger Suite 2020-1.
 63 63  0  0  1  0            999 V2000
    1.6376   -1.5711   -1.6937 C   0  0  0  0  0  0
    1.8492   -1.8313   -0.1438 C   0  0  0  0  0  0
   -0.6210    0.6090    0.3471 C   0  0  0  0  0  0
    1.3891   -2.7104   -2.3682 N   0  0  0  0  0  0
   -0.5911   -2.3692   -3.8637 C   0  0  0  0  0  0
    0.0082   -0.5860    0.6679 N   0  0  0  0  0  0
    1.4733   -0.6757    0.7815 C   0  0  1  0  0  0
   -1.9502    0.3820    0.2638 O   0  0  0  0  0  0
    0.9011   -2.7975   -3.7542 C   0  0  2  0  0  0
   -2.8832    1.3979   -0.1264 C   0  0  0  0  0  0
   -1.4549   -3.2787   -3.3500 N   0  0  0  0  0  0
    2.2958   -2.9139    0.2480 O   0  0  0  0  0  0
    1.6762   -0.4359   -2.1700 O   0  0  0  0  0  0
   -0.0759    1.6977    0.1527 O   0  0  0  0  0  0
   -0.9785   -1.3710   -4.4668 O   0  0  0  0  0  0
   -4.0385    1.4090    0.9195 C   0  0  0  0  0  0
   -3.3153    1.1837   -1.6128 C   0  0  0  0  0  0
    1.9317   -0.9080    2.2457 C   0  0  0  0  0  0
   -1.0303   -4.6049   -2.8658 C   0  0  0  0  0  0
    1.0406   -4.2047   -4.3880 C   0  0  0  0  0  0
   -3.5287    1.7722    2.3291 C   0  0  0  0  0  0
   -2.1208    1.2437   -2.5888 C   0  0  0  0  0  0
   -4.4035    2.1772   -2.0715 C   0  0  0  0  0  0
   -4.8588    0.1019    0.9539 C   0  0  0  0  0  0
    1.6249    0.2800    3.1801 C   0  0  0  0  0  0
    2.1158    0.0526    4.6203 C   0  0  0  0  0  0
   -0.0188   -5.2167   -3.8742 C   0  0  0  0  0  0
    1.8276    1.2434    5.5445 C   0  0  0  0  0  0
    1.3010   -3.5524   -1.8176 H   0  0  0  0  0  0
   -0.5491   -1.3926    0.9084 H   0  0  0  0  0  0
    1.9759    0.2258    0.4213 H   0  0  0  0  0  0
    1.4757   -2.0825   -4.3479 H   0  0  0  0  0  0
   -2.4150    2.3829   -0.0688 H   0  0  0  0  0  0
   -2.4431   -3.0986   -3.4547 H   0  0  0  0  0  0
   -4.7233    2.2123    0.6478 H   0  0  0  0  0  0
   -3.7363    0.1813   -1.7025 H   0  0  0  0  0  0
    1.4500   -1.8014    2.6485 H   0  0  0  0  0  0
    3.0071   -1.0962    2.2642 H   0  0  0  0  0  0
   -1.9074   -5.2441   -2.7601 H   0  0  0  0  0  0
   -0.5854   -4.4918   -1.8761 H   0  0  0  0  0  0
    0.9729   -4.1241   -5.4745 H   0  0  0  0  0  0
    2.0409   -4.5945   -4.1932 H   0  0  0  0  0  0
   -2.8624    1.0063    2.7280 H   0  0  0  0  0  0
   -4.3556    1.8857    3.0312 H   0  0  0  0  0  0
   -2.9802    2.7148    2.3197 H   0  0  0  0  0  0
   -1.6028    2.2016   -2.5275 H   0  0  0  0  0  0
   -2.4423    1.1073   -3.6219 H   0  0  0  0  0  0
   -1.3922    0.4595   -2.3843 H   0  0  0  0  0  0
   -4.0804    3.2107   -1.9398 H   0  0  0  0  0  0
   -5.3342    2.0439   -1.5204 H   0  0  0  0  0  0
   -4.6472    2.0402   -3.1259 H   0  0  0  0  0  0
   -4.2372   -0.7559    1.2131 H   0  0  0  0  0  0
   -5.3268   -0.1061   -0.0080 H   0  0  0  0  0  0
   -5.6609    0.1601    1.6904 H   0  0  0  0  0  0
    2.0888    1.1827    2.7792 H   0  0  0  0  0  0
    0.5501    0.4669    3.1978 H   0  0  0  0  0  0
    1.6430   -0.8406    5.0311 H   0  0  0  0  0  0
    3.1889   -0.1439    4.6164 H   0  0  0  0  0  0
    0.4644   -6.0842   -3.4233 H   0  0  0  0  0  0
   -0.5709   -5.6134   -4.7279 H   0  0  0  0  0  0
    2.1853    1.0473    6.5556 H   0  0  0  0  0  0
    0.7580    1.4476    5.6058 H   0  0  0  0  0  0
    2.3213    2.1486    5.1892 H   0  0  0  0  0  0
  1  2  1  0  0  0
  1  4  1  0  0  0
  1 13  2  0  0  0
  2  7  1  0  0  0
  2 12  2  0  0  0
  3  6  1  0  0  0
  3  8  1  0  0  0
  3 14  2  0  0  0
  4  9  1  0  0  0
  4 29  1  0  0  0
  5  9  1  0  0  0
  5 11  1  0  0  0
  5 15  2  0  0  0
  6  7  1  0  0  0
  6 30  1  0  0  0
  7 18  1  0  0  0
  7 31  1  0  0  0
  8 10  1  0  0  0
  9 20  1  0  0  0
  9 32  1  0  0  0
 10 16  1  0  0  0
 10 17  1  0  0  0
 10 33  1  0  0  0
 11 19  1  0  0  0
 11 34  1  0  0  0
 16 21  1  0  0  0
 16 24  1  0  0  0
 16 35  1  0  0  0
 17 22  1  0  0  0
 17 23  1  0  0  0
 17 36  1  0  0  0
 18 25  1  0  0  0
 18 37  1  0  0  0
 18 38  1  0  0  0
 19 27  1  0  0  0
 19 39  1  0  0  0
 19 40  1  0  0  0
 20 27  1  0  0  0
 20 41  1  0  0  0
 20 42  1  0  0  0
 21 43  1  0  0  0
 21 44  1  0  0  0
 21 45  1  0  0  0
 22 46  1  0  0  0
 22 47  1  0  0  0
 22 48  1  0  0  0
 23 49  1  0  0  0
 23 50  1  0  0  0
 23 51  1  0  0  0
 24 52  1  0  0  0
 24 53  1  0  0  0
 24 54  1  0  0  0
 25 26  1  0  0  0
 25 55  1  0  0  0
 25 56  1  0  0  0
 26 28  1  0  0  0
 26 57  1  0  0  0
 26 58  1  0  0  0
 27 59  1  0  0  0
 27 60  1  0  0  0
 28 61  1  0  0  0
 28 62  1  0  0  0
 28 63  1  0  0  0
M  END
> <chembl_id>
CHEMBL86088

> <chembl_pref_name>
None

> <i_m_ct_stereo_status>
1

> <s_m_source_file>
sdf/inactives_sanitized.sdf

> <i_m_source_file_index>
353

> <i_lp_mmshare_version>
49012

> <i_f3d_flags>
0

> <s_epik_input>
W05IXTFbQ0gyXVtDSDJdW0NIMl1bQ0BASF0oQzE9TylbTkhdQyg9TylDKD1PKVtDQEhdKFtDSDJdW0NIMl1bQ0gyXVtDSDNdKVtOSF1DKD1PKU9bQ0hdKFtDSF0oW0NIM10pW0NIM10pW0NIXShbQ0gzXSlbQ0gzXQ==

> <s_epik_cmdline>
J2VwaWtfcHl0aG9uJywgJy1waHQnLCAnMC41JywgJy1waCcsICc3LjUnLCAnLW50JywgJy1tYScsICcyMDAnLCAnLWltYWUnLCAnPGluZmlsZS5tYWU+JywgJy1vbWFlJywgJzxvdXRmaWxlLm1hZT4n

> <r_lp_tautomer_probability>
1

> <r_epik_Ionization_Penalty>
  0.0000

> <r_epik_Ionization_Penalty_Charging>
  0.0000

> <r_epik_Ionization_Penalty_Neutral>
  0.0000

> <r_epik_State_Penalty>
 -0.0000

> <r_epik_Charging_Adjusted_Penalty>
0

> <i_epik_Tot_Q>
0

> <i_epik_Tot_abs_Q>
0

> <s_epik_Chemistry_Notes>
This compound has an ester and may undergo hydrolysis at high or low pH.

> <s_lp_Force_Field>
OPLS3e

> <r_lp_Energy>
41.634522

> <b_lp_Chiralities_Consistent>
1

> <s_lp_Variant>
sdf/inactives_sanitized.sdf:353-1

$$$$
sdf/inactives_sanitized.sdf:354
                    3D
 Schrodinger Suite 2020-1.
 43 44  0  0  1  0            999 V2000
   -0.6386    1.2959   -0.0268 C   0  0  0  0  0  0
    0.0260    0.0831    0.0585 N   0  0  0  0  0  0
   -0.5347   -1.1803    0.2142 C   0  0  0  0  0  0
   -1.9215   -1.1437    0.1124 N   0  0  0  0  0  0
   -2.6955    0.0174    0.1785 N   0  0  0  0  0  0
   -2.0898    1.1411    0.0863 C   0  0  0  0  0  0
    0.1191   -2.2165    0.3803 O   0  0  0  0  0  0
   -2.9166    2.3293    0.1080 C   0  0  0  0  0  0
   -3.6110    3.2550    0.1378 N   0  0  0  0  0  0
   -0.0963    2.3945   -0.1741 O   0  0  0  0  0  0
    1.5071    0.1423   -0.0011 C   0  0  0  0  0  0
    2.0719   -0.0075   -1.4278 C   0  0  0  0  0  0
    3.6033    0.0664   -1.4604 C   0  0  0  0  0  0
   -2.6771   -2.3445    0.0726 C   0  0  0  0  0  0
   -3.7448   -2.5424    0.9598 C   0  0  0  0  0  0
   -4.4851   -3.7200    0.9185 C   0  0  0  0  0  0
   -4.1710   -4.7101   -0.0094 C   0  0  0  0  0  0
   -3.1148   -4.5452   -0.9188 C   0  0  0  0  0  0
   -2.3790   -3.3488   -0.8637 C   0  0  0  0  0  0
   -2.8003   -5.6695   -1.9383 C   0  0  0  0  0  0
   -1.6288   -5.3220   -2.8961 C   0  0  0  0  0  0
   -4.0470   -5.9460   -2.8154 C   0  0  0  0  0  0
   -2.4142   -6.9632   -1.1796 C   0  0  0  0  0  0
    1.9532   -0.6198    0.6407 H   0  0  0  0  0  0
    1.8784    1.0735    0.4316 H   0  0  0  0  0  0
    1.7566   -0.9615   -1.8528 H   0  0  0  0  0  0
    1.6666    0.7753   -2.0703 H   0  0  0  0  0  0
    3.9765   -0.0439   -2.4790 H   0  0  0  0  0  0
    4.0503   -0.7248   -0.8575 H   0  0  0  0  0  0
    3.9619    1.0229   -1.0781 H   0  0  0  0  0  0
   -4.0002   -1.7894    1.6916 H   0  0  0  0  0  0
   -5.3027   -3.8667    1.6087 H   0  0  0  0  0  0
   -4.7609   -5.6145   -0.0154 H   0  0  0  0  0  0
   -1.5639   -3.1763   -1.5496 H   0  0  0  0  0  0
   -1.4372   -6.1300   -3.6039 H   0  0  0  0  0  0
   -0.6973   -5.1523   -2.3538 H   0  0  0  0  0  0
   -1.8397   -4.4294   -3.4871 H   0  0  0  0  0  0
   -4.3643   -5.0495   -3.3500 H   0  0  0  0  0  0
   -4.8979   -6.2929   -2.2282 H   0  0  0  0  0  0
   -3.8490   -6.7153   -3.5634 H   0  0  0  0  0  0
   -2.1712   -7.7749   -1.8669 H   0  0  0  0  0  0
   -3.2210   -7.3231   -0.5403 H   0  0  0  0  0  0
   -1.5420   -6.8059   -0.5432 H   0  0  0  0  0  0
  1  6  1  0  0  0
  1  2  1  0  0  0
  1 10  2  0  0  0
  2  3  1  0  0  0
  2 11  1  0  0  0
  3  7  2  0  0  0
  3  4  1  0  0  0
  4 14  1  0  0  0
  4  5  1  0  0  0
  5  6  2  0  0  0
  6  8  1  0  0  0
  8  9  3  0  0  0
 11 12  1  0  0  0
 11 24  1  0  0  0
 11 25  1  0  0  0
 12 13  1  0  0  0
 12 26  1  0  0  0
 12 27  1  0  0  0
 13 28  1  0  0  0
 13 29  1  0  0  0
 13 30  1  0  0  0
 14 15  2  0  0  0
 14 19  1  0  0  0
 15 16  1  0  0  0
 15 31  1  0  0  0
 16 17  2  0  0  0
 16 32  1  0  0  0
 17 18  1  0  0  0
 17 33  1  0  0  0
 18 19  2  0  0  0
 18 20  1  0  0  0
 19 34  1  0  0  0
 20 21  1  0  0  0
 20 22  1  0  0  0
 20 23  1  0  0  0
 21 35  1  0  0  0
 21 36  1  0  0  0
 21 37  1  0  0  0
 22 38  1  0  0  0
 22 39  1  0  0  0
 22 40  1  0  0  0
 23 41  1  0  0  0
 23 42  1  0  0  0
 23 43  1  0  0  0
M  END
> <chembl_id>
CHEMBL1078871

> <chembl_pref_name>
None

> <s_m_source_file>
sdf/inactives_sanitized.sdf

> <i_m_source_file_index>
354

> <i_lp_mmshare_version>
49012

> <i_m_ct_stereo_status>
1

> <i_f3d_flags>
0

> <s_epik_input>
W0NIM11bQ0gyXVtDSDJdbihjMT1PKWMoPU8pbihuYzFDI04pLWMyW2NIXVtjSF1bY0hdYyhbY0hdMilDKFtDSDNdKShbQ0gzXSlbQ0gzXQ==

> <s_epik_cmdline>
J2VwaWtfcHl0aG9uJywgJy1waHQnLCAnMC41JywgJy1waCcsICc3LjUnLCAnLW50JywgJy1tYScsICcyMDAnLCAnLWltYWUnLCAnPGluZmlsZS5tYWU+JywgJy1vbWFlJywgJzxvdXRmaWxlLm1hZT4n

> <r_lp_tautomer_probability>
1

> <r_epik_Ionization_Penalty>
  0.0000

> <r_epik_Ionization_Penalty_Charging>
  0.0000

> <r_epik_Ionization_Penalty_Neutral>
  0.0000

> <r_epik_State_Penalty>
 -0.0000

> <r_epik_Charging_Adjusted_Penalty>
1.76235455904074e-12

> <i_epik_Tot_Q>
0

> <i_epik_Tot_abs_Q>
0

> <s_lp_Force_Field>
OPLS3e

> <r_lp_Energy>
56.455058

> <b_lp_Chiralities_Consistent>
1

> <s_lp_Variant>
sdf/inactives_sanitized.sdf:354-1

$$$$
sdf/inactives_sanitized.sdf:355
                    3D
 Schrodinger Suite 2020-1.
 34 35  0  0  1  0            999 V2000
   -0.4346    1.1836   -0.2900 C   0  0  0  0  0  0
    0.1479   -0.0578   -0.0854 N   0  0  0  0  0  0
   -0.4985   -1.2564    0.2032 C   0  0  0  0  0  0
   -1.8781   -1.1352    0.0995 N   0  0  0  0  0  0
   -2.5645    0.0815    0.0915 N   0  0  0  0  0  0
   -1.8888    1.1444   -0.1328 C   0  0  0  0  0  0
    0.0842   -2.3170    0.4544 O   0  0  0  0  0  0
   -2.6318    2.3843   -0.2109 C   0  0  0  0  0  0
   -3.2557    3.3588   -0.2476 N   0  0  0  0  0  0
    0.1757    2.2224   -0.5560 O   0  0  0  0  0  0
    1.6303   -0.1246   -0.1774 C   0  0  0  0  0  0
    2.3689   -0.0727    1.1804 C   0  0  0  0  0  0
    2.1621    1.2255    1.9749 C   0  0  0  0  0  0
   -2.6928   -2.3749    0.0553 C   0  0  0  0  0  0
   -3.6443   -2.4532   -1.1669 C   0  0  0  0  0  0
   -5.0201   -2.8901   -0.6377 C   0  0  0  0  0  0
   -4.7806   -3.3834    0.7892 C   0  0  0  0  0  0
   -3.6156   -2.5280    1.2825 C   0  0  0  0  0  0
    1.9272   -1.0286   -0.7123 H   0  0  0  0  0  0
    2.0070    0.6887   -0.8002 H   0  0  0  0  0  0
    2.0891   -0.9301    1.7933 H   0  0  0  0  0  0
    3.4363   -0.1882    0.9897 H   0  0  0  0  0  0
    2.7742    1.2301    2.8770 H   0  0  0  0  0  0
    1.1235    1.3419    2.2847 H   0  0  0  0  0  0
    2.4371    2.0996    1.3841 H   0  0  0  0  0  0
   -2.1193   -3.3056    0.0362 H   0  0  0  0  0  0
   -3.7501   -1.4988   -1.6848 H   0  0  0  0  0  0
   -3.2624   -3.1632   -1.9019 H   0  0  0  0  0  0
   -5.7005   -2.0367   -0.6236 H   0  0  0  0  0  0
   -5.4777   -3.6579   -1.2627 H   0  0  0  0  0  0
   -5.6661   -3.2834    1.4181 H   0  0  0  0  0  0
   -4.4961   -4.4370    0.7816 H   0  0  0  0  0  0
   -3.9974   -1.5620    1.6176 H   0  0  0  0  0  0
   -3.0947   -2.9569    2.1397 H   0  0  0  0  0  0
  1 10  2  0  0  0
  1  6  1  0  0  0
  1  2  1  0  0  0
  2  3  1  0  0  0
  2 11  1  0  0  0
  3  7  2  0  0  0
  3  4  1  0  0  0
  4  5  1  0  0  0
  4 14  1  0  0  0
  5  6  2  0  0  0
  6  8  1  0  0  0
  8  9  3  0  0  0
 11 12  1  0  0  0
 11 19  1  0  0  0
 11 20  1  0  0  0
 12 13  1  0  0  0
 12 21  1  0  0  0
 12 22  1  0  0  0
 13 23  1  0  0  0
 13 24  1  0  0  0
 13 25  1  0  0  0
 14 15  1  0  0  0
 14 18  1  0  0  0
 14 26  1  0  0  0
 15 16  1  0  0  0
 15 27  1  0  0  0
 15 28  1  0  0  0
 16 17  1  0  0  0
 16 29  1  0  0  0
 16 30  1  0  0  0
 17 18  1  0  0  0
 17 31  1  0  0  0
 17 32  1  0  0  0
 18 33  1  0  0  0
 18 34  1  0  0  0
M  END
> <chembl_id>
CHEMBL1078975

> <chembl_pref_name>
None

> <s_m_source_file>
sdf/inactives_sanitized.sdf

> <i_m_source_file_index>
355

> <i_lp_mmshare_version>
49012

> <i_m_ct_stereo_status>
1

> <i_f3d_flags>
0

> <s_epik_input>
W0NIM11bQ0gyXVtDSDJdbihjMT1PKWMoPU8pbihuYzFDI04pW0NIXTJbQ0gyXVtDSDJdW0NIMl1bQ0gyXTI=

> <s_epik_cmdline>
J2VwaWtfcHl0aG9uJywgJy1waHQnLCAnMC41JywgJy1waCcsICc3LjUnLCAnLW50JywgJy1tYScsICcyMDAnLCAnLWltYWUnLCAnPGluZmlsZS5tYWU+JywgJy1vbWFlJywgJzxvdXRmaWxlLm1hZT4n

> <r_lp_tautomer_probability>
1

> <r_epik_Ionization_Penalty>
  0.0000

> <r_epik_Ionization_Penalty_Charging>
  0.0000

> <r_epik_Ionization_Penalty_Neutral>
  0.0000

> <r_epik_State_Penalty>
 -0.0000

> <r_epik_Charging_Adjusted_Penalty>
4.8873896587189e-12

> <i_epik_Tot_Q>
0

> <i_epik_Tot_abs_Q>
0

> <s_lp_Force_Field>
OPLS3e

> <r_lp_Energy>
40.776976

> <b_lp_Chiralities_Consistent>
1

> <s_lp_Variant>
sdf/inactives_sanitized.sdf:355-1

$$$$
sdf/inactives_sanitized.sdf:356
                    3D
 Schrodinger Suite 2020-1.
 67 69  0  0  1  0            999 V2000
   -0.8369   -1.6272    0.0304 C   0  0  0  0  0  0
   -0.1214   -0.4416   -0.7424 C   0  0  0  0  0  0
    2.1142   -0.0412   -2.8778 C   0  0  0  0  0  0
   -2.1622   -1.6736   -0.2102 N   0  0  0  0  0  0
    2.0368    0.4512   -1.5767 N   0  0  0  0  0  0
    1.3892   -0.3128   -0.4872 C   0  0  1  0  0  0
    2.9699    0.7066   -5.0611 C   0  0  0  0  0  0
    2.7934    0.8510   -3.6384 O   0  0  0  0  0  0
   -3.0975   -2.6556    0.3514 C   0  0  1  0  0  0
   -0.7672    0.2992   -1.4926 O   0  0  0  0  0  0
   -0.2093   -2.3945    0.7626 O   0  0  0  0  0  0
    1.6451   -1.1049   -3.2894 O   0  0  0  0  0  0
   -3.1963   -2.6502    1.8830 C   0  0  0  0  0  0
    1.6370    0.8609   -5.8468 C   0  0  0  0  0  0
    0.8241    2.0930   -5.4626 C   0  0  0  0  0  0
    4.1098    1.6386   -5.5233 C   0  0  0  0  0  0
    3.8873   -0.4657   -5.4806 C   0  0  0  0  0  0
    1.6223    0.3788    0.8838 C   0  0  0  0  0  0
    5.0865    0.4757   -5.2870 C   0  0  0  0  0  0
   -4.4878   -2.4877   -0.2840 C   0  0  0  0  0  0
   -3.1702   -1.4479    2.6017 C   0  0  0  0  0  0
   -3.2881   -3.8651    2.5704 C   0  0  0  0  0  0
   -0.2460    1.9739   -4.5710 C   0  0  0  0  0  0
    1.1535    3.3415   -5.9971 C   0  0  0  0  0  0
    3.1115    0.4945    1.2776 C   0  0  0  0  0  0
    3.3466    1.0609    2.6915 C   0  0  0  0  0  0
    2.9176    2.5264    2.8636 C   0  0  0  0  0  0
   -3.2414   -1.4619    3.9919 C   0  0  0  0  0  0
   -3.3600   -3.8788    3.9609 C   0  0  0  0  0  0
    0.4209    4.4685   -5.6337 C   0  0  0  0  0  0
   -0.9771    3.1008   -4.2063 C   0  0  0  0  0  0
   -0.6399    4.3432   -4.7390 C   0  0  0  0  0  0
   -3.3365   -2.6774    4.6652 C   0  0  0  0  0  0
   -2.5534   -1.0046   -0.8578 H   0  0  0  0  0  0
    2.7188    1.1446   -1.3068 H   0  0  0  0  0  0
    1.8747   -1.2911   -0.4500 H   0  0  0  0  0  0
   -2.7275   -3.6351    0.0384 H   0  0  0  0  0  0
    1.8311    0.8918   -6.9201 H   0  0  0  0  0  0
    1.0215   -0.0292   -5.7081 H   0  0  0  0  0  0
    4.0401    1.9408   -6.5706 H   0  0  0  0  0  0
    4.2752    2.5290   -4.9150 H   0  0  0  0  0  0
    3.8763   -1.3446   -4.8355 H   0  0  0  0  0  0
    3.7447   -0.7893   -6.5138 H   0  0  0  0  0  0
    1.1838    1.3784    0.8631 H   0  0  0  0  0  0
    1.1058   -0.1690    1.6742 H   0  0  0  0  0  0
    5.5074    0.4515   -4.2796 H   0  0  0  0  0  0
    5.8882    0.3757   -6.0193 H   0  0  0  0  0  0
   -5.1712   -3.2705    0.0472 H   0  0  0  0  0  0
   -4.4358   -2.5434   -1.3722 H   0  0  0  0  0  0
   -4.9330   -1.5260   -0.0246 H   0  0  0  0  0  0
   -3.0958   -0.5020    2.0852 H   0  0  0  0  0  0
   -3.3026   -4.8004    2.0297 H   0  0  0  0  0  0
   -0.5075    1.0117   -4.1552 H   0  0  0  0  0  0
    1.9773    3.4410   -6.6888 H   0  0  0  0  0  0
    3.5691   -0.4945    1.2236 H   0  0  0  0  0  0
    3.6442    1.1130    0.5539 H   0  0  0  0  0  0
    2.8298    0.4424    3.4269 H   0  0  0  0  0  0
    4.4081    0.9799    2.9288 H   0  0  0  0  0  0
    3.1719    2.8893    3.8598 H   0  0  0  0  0  0
    1.8417    2.6488    2.7380 H   0  0  0  0  0  0
    3.4166    3.1720    2.1400 H   0  0  0  0  0  0
   -3.2220   -0.5344    4.5450 H   0  0  0  0  0  0
   -3.4313   -4.8172    4.4908 H   0  0  0  0  0  0
    0.6744    5.4354   -6.0428 H   0  0  0  0  0  0
   -1.8004    3.0114   -3.5129 H   0  0  0  0  0  0
   -1.2069    5.2179   -4.4561 H   0  0  0  0  0  0
   -3.3910   -2.6886    5.7439 H   0  0  0  0  0  0
  1  2  1  0  0  0
  1  4  1  0  0  0
  1 11  2  0  0  0
  2  6  1  0  0  0
  2 10  2  0  0  0
  3  5  1  0  0  0
  3  8  1  0  0  0
  3 12  2  0  0  0
  4  9  1  0  0  0
  4 34  1  0  0  0
  5  6  1  0  0  0
  5 35  1  0  0  0
  6 18  1  0  0  0
  6 36  1  0  0  0
  7  8  1  0  0  0
  7 14  1  0  0  0
  7 16  1  0  0  0
  7 17  1  0  0  0
  9 13  1  0  0  0
  9 20  1  0  0  0
  9 37  1  0  0  0
 13 21  2  0  0  0
 13 22  1  0  0  0
 14 15  1  0  0  0
 14 38  1  0  0  0
 14 39  1  0  0  0
 15 23  2  0  0  0
 15 24  1  0  0  0
 16 19  1  0  0  0
 16 40  1  0  0  0
 16 41  1  0  0  0
 17 19  1  0  0  0
 17 42  1  0  0  0
 17 43  1  0  0  0
 18 25  1  0  0  0
 18 44  1  0  0  0
 18 45  1  0  0  0
 19 46  1  0  0  0
 19 47  1  0  0  0
 20 48  1  0  0  0
 20 49  1  0  0  0
 20 50  1  0  0  0
 21 28  1  0  0  0
 21 51  1  0  0  0
 22 29  2  0  0  0
 22 52  1  0  0  0
 23 31  1  0  0  0
 23 53  1  0  0  0
 24 30  2  0  0  0
 24 54  1  0  0  0
 25 26  1  0  0  0
 25 55  1  0  0  0
 25 56  1  0  0  0
 26 27  1  0  0  0
 26 57  1  0  0  0
 26 58  1  0  0  0
 27 59  1  0  0  0
 27 60  1  0  0  0
 27 61  1  0  0  0
 28 33  2  0  0  0
 28 62  1  0  0  0
 29 33  1  0  0  0
 29 63  1  0  0  0
 30 32  1  0  0  0
 30 64  1  0  0  0
 31 32  2  0  0  0
 31 65  1  0  0  0
 32 66  1  0  0  0
 33 67  1  0  0  0
M  END
> <chembl_id>
CHEMBL441673

> <chembl_pref_name>
None

> <i_m_ct_stereo_status>
1

> <s_m_source_file>
sdf/inactives_sanitized.sdf

> <i_m_source_file_index>
356

> <i_lp_mmshare_version>
49012

> <i_f3d_flags>
0

> <s_epik_input>
W2NIXTFbY0hdW2NIXVtjSF1bY0hdYzFbQ0BASF0oW0NIM10pW05IXUMoPU8pQyg9TylbQ0BIXShbQ0gyXVtDSDJdW0NIMl1bQ0gzXSlbTkhdQyg9TylPQzIoW0NIMl1bQ0gyXVtDSDJdMilbQ0gyXWMzW2NIXVtjSF1bY0hdW2NIXVtjSF0z

> <s_epik_cmdline>
J2VwaWtfcHl0aG9uJywgJy1waHQnLCAnMC41JywgJy1waCcsICc3LjUnLCAnLW50JywgJy1tYScsICcyMDAnLCAnLWltYWUnLCAnPGluZmlsZS5tYWU+JywgJy1vbWFlJywgJzxvdXRmaWxlLm1hZT4n

> <r_lp_tautomer_probability>
1

> <r_epik_Ionization_Penalty>
  0.0000

> <r_epik_Ionization_Penalty_Charging>
  0.0000

> <r_epik_Ionization_Penalty_Neutral>
  0.0000

> <r_epik_State_Penalty>
 -0.0000

> <r_epik_Charging_Adjusted_Penalty>
0

> <i_epik_Tot_Q>
0

> <i_epik_Tot_abs_Q>
0

> <s_epik_Chemistry_Notes>
This compound has an ester and may undergo hydrolysis at high or low pH.

> <s_lp_Force_Field>
OPLS3e

> <r_lp_Energy>
48.937243

> <b_lp_Chiralities_Consistent>
1

> <s_lp_Variant>
sdf/inactives_sanitized.sdf:356-1

$$$$
sdf/inactives_sanitized.sdf:357
                    3D
 Schrodinger Suite 2020-1.
 59 60  0  0  1  0            999 V2000
   -3.5860   -4.0644   -6.7765 C   0  0  0  0  0  0
   -4.3235   -3.3502   -5.8341 C   0  0  0  0  0  0
   -3.7488   -2.2542   -5.1957 C   0  0  0  0  0  0
   -2.4383   -1.8789   -5.5020 C   0  0  0  0  0  0
   -1.7031   -2.5976   -6.4478 C   0  0  0  0  0  0
   -2.2791   -3.6928   -7.0866 C   0  0  0  0  0  0
   -1.8128   -0.6859   -4.8032 C   0  0  0  0  0  0
   -1.4916   -1.0360   -3.4627 O   0  0  0  0  0  0
   -0.9529   -0.1312   -2.6243 C   0  0  0  0  0  0
   -0.7529   -0.7320   -1.3863 N   0  0  0  0  0  0
   -0.6883    1.0368   -2.9215 O   0  0  0  0  0  0
   -0.1279    0.0034   -0.2728 C   0  0  2  0  0  0
    1.3983    0.1896   -0.4524 C   0  0  0  0  0  0
   -0.4275   -0.7381    1.0588 C   0  0  0  0  0  0
    1.9133    1.3224    0.0561 N   0  0  0  0  0  0
    2.0678   -0.6805   -1.0119 O   0  0  0  0  0  0
   -1.9241   -0.8213    1.4473 C   0  0  0  0  0  0
   -2.5678    0.5711    1.6222 C   0  0  0  0  0  0
   -2.1250   -1.7154    2.6898 C   0  0  0  0  0  0
    3.3222    1.7145   -0.0038 C   0  0  2  0  0  0
    4.2171    0.6810    0.5586 C   0  0  0  0  0  0
    3.5332    3.0884    0.6644 C   0  0  0  0  0  0
    4.9183   -0.1271    1.0001 N   0  0  0  0  0  0
    4.9523    3.6202    0.5195 C   0  0  0  0  0  0
    5.3303    4.2995   -0.6426 C   0  0  0  0  0  0
    6.6307    4.7845   -0.7803 C   0  0  0  0  0  0
    7.5600    4.5908    0.2415 C   0  0  0  0  0  0
    7.1934    3.9097    1.4054 C   0  0  0  0  0  0
    5.8878    3.4279    1.5416 C   0  0  0  0  0  0
    8.2094    3.7059    2.5142 C   0  0  0  0  0  0
   -4.0319   -4.9146   -7.2714 H   0  0  0  0  0  0
   -5.3356   -3.6457   -5.5992 H   0  0  0  0  0  0
   -4.3187   -1.7000   -4.4640 H   0  0  0  0  0  0
   -0.6890   -2.3115   -6.6869 H   0  0  0  0  0  0
   -1.7150   -4.2524   -7.8182 H   0  0  0  0  0  0
   -2.5136    0.1507   -4.8256 H   0  0  0  0  0  0
   -0.9163   -0.3665   -5.3380 H   0  0  0  0  0  0
   -0.9224   -1.7217   -1.2810 H   0  0  0  0  0  0
   -0.5826    0.9951   -0.2134 H   0  0  0  0  0  0
    0.1058   -0.2541    1.8798 H   0  0  0  0  0  0
   -0.0161   -1.7485    1.0023 H   0  0  0  0  0  0
    1.2803    1.9981    0.4586 H   0  0  0  0  0  0
   -2.4491   -1.3172    0.6298 H   0  0  0  0  0  0
   -3.2337    0.6222    2.4836 H   0  0  0  0  0  0
   -3.1638    0.8297    0.7464 H   0  0  0  0  0  0
   -1.8199    1.3540    1.7506 H   0  0  0  0  0  0
   -2.4728   -1.1565    3.5588 H   0  0  0  0  0  0
   -1.2029   -2.2153    2.9886 H   0  0  0  0  0  0
   -2.8605   -2.4952    2.4900 H   0  0  0  0  0  0
    3.5952    1.8057   -1.0572 H   0  0  0  0  0  0
    2.8483    3.8227    0.2361 H   0  0  0  0  0  0
    3.2700    3.0389    1.7226 H   0  0  0  0  0  0
    4.6183    4.4515   -1.4410 H   0  0  0  0  0  0
    6.9184    5.3095   -1.6791 H   0  0  0  0  0  0
    8.5654    4.9689    0.1262 H   0  0  0  0  0  0
    5.6002    2.8989    2.4391 H   0  0  0  0  0  0
    7.7523    3.3127    3.4232 H   0  0  0  0  0  0
    8.6835    4.6549    2.7670 H   0  0  0  0  0  0
    8.9941    3.0227    2.1877 H   0  0  0  0  0  0
  1  6  2  0  0  0
  1  2  1  0  0  0
  1 31  1  0  0  0
  2  3  2  0  0  0
  2 32  1  0  0  0
  3  4  1  0  0  0
  3 33  1  0  0  0
  4  5  2  0  0  0
  4  7  1  0  0  0
  5  6  1  0  0  0
  5 34  1  0  0  0
  6 35  1  0  0  0
  7  8  1  0  0  0
  7 36  1  0  0  0
  7 37  1  0  0  0
  8  9  1  0  0  0
  9 10  1  0  0  0
  9 11  2  0  0  0
 10 12  1  0  0  0
 10 38  1  0  0  0
 12 13  1  0  0  0
 12 14  1  0  0  0
 12 39  1  0  0  0
 13 15  1  0  0  0
 13 16  2  0  0  0
 14 17  1  0  0  0
 14 40  1  0  0  0
 14 41  1  0  0  0
 15 20  1  0  0  0
 15 42  1  0  0  0
 17 18  1  0  0  0
 17 19  1  0  0  0
 17 43  1  0  0  0
 18 44  1  0  0  0
 18 45  1  0  0  0
 18 46  1  0  0  0
 19 47  1  0  0  0
 19 48  1  0  0  0
 19 49  1  0  0  0
 20 21  1  0  0  0
 20 22  1  0  0  0
 20 50  1  0  0  0
 21 23  3  0  0  0
 22 24  1  0  0  0
 22 51  1  0  0  0
 22 52  1  0  0  0
 24 25  2  0  0  0
 24 29  1  0  0  0
 25 26  1  0  0  0
 25 53  1  0  0  0
 26 27  2  0  0  0
 26 54  1  0  0  0
 27 28  1  0  0  0
 27 55  1  0  0  0
 28 29  2  0  0  0
 28 30  1  0  0  0
 29 56  1  0  0  0
 30 57  1  0  0  0
 30 58  1  0  0  0
 30 59  1  0  0  0
M  END
> <chembl_id>
CHEMBL207200

> <chembl_pref_name>
None

> <i_m_ct_stereo_status>
1

> <s_m_source_file>
sdf/inactives_sanitized.sdf

> <i_m_source_file_index>
357

> <i_lp_mmshare_version>
49012

> <i_f3d_flags>
0

> <s_epik_input>
W2NIXTFbY0hdW2NIXVtjSF1bY0hdYzFbQ0gyXU9DKD1PKVtOSF1bQ0BASF0oW0NIMl1bQ0hdKFtDSDNdKVtDSDNdKUMoPU8pW05IXVtDQEhdKEMjTilbQ0gyXWMyW2NIXVtjSF1bY0hdYyhbY0hdMilbQ0gzXQ==

> <s_epik_cmdline>
J2VwaWtfcHl0aG9uJywgJy1waHQnLCAnMC41JywgJy1waCcsICc3LjUnLCAnLW50JywgJy1tYScsICcyMDAnLCAnLWltYWUnLCAnPGluZmlsZS5tYWU+JywgJy1vbWFlJywgJzxvdXRmaWxlLm1hZT4n

> <r_lp_tautomer_probability>
1

> <r_epik_Ionization_Penalty>
  0.0000

> <r_epik_Ionization_Penalty_Charging>
  0.0000

> <r_epik_Ionization_Penalty_Neutral>
  0.0000

> <r_epik_State_Penalty>
 -0.0000

> <r_epik_Charging_Adjusted_Penalty>
0

> <i_epik_Tot_Q>
0

> <i_epik_Tot_abs_Q>
0

> <s_epik_Chemistry_Notes>
This compound has an ester and may undergo hydrolysis at high or low pH.

> <s_lp_Force_Field>
OPLS3e

> <r_lp_Energy>
23.758818

> <b_lp_Chiralities_Consistent>
1

> <s_lp_Variant>
sdf/inactives_sanitized.sdf:357-1

$$$$
sdf/inactives_sanitized.sdf:358
                    3D
 Schrodinger Suite 2020-1.
 77 80  0  0  1  0            999 V2000
   -0.5814   -1.6426   -3.8514 N   0  0  0  0  0  0
   -0.0131   -0.7090   -3.0368 C   0  0  0  0  0  0
    0.0572   -1.0609   -1.7357 N   0  0  0  0  0  0
    0.5079    0.3266   -3.4616 O   0  0  0  0  0  0
    0.7115   -0.3015   -0.6645 C   0  0  2  0  0  0
    2.2458   -0.4248   -0.7867 C   0  0  0  0  0  0
    2.8857    0.6461   -1.2900 N   0  0  0  0  0  0
    2.8066   -1.4638   -0.4337 O   0  0  0  0  0  0
    4.3326    0.7524   -1.5195 C   0  0  2  0  0  0
    4.9817    1.6255   -0.4248 C   0  0  0  0  0  0
    6.5076    1.6067   -0.3673 C   0  0  0  0  0  0
    4.6211    1.2545   -2.9523 C   0  0  0  0  0  0
    7.1261    2.5962   -1.2881 N   0  0  3  0  0  0
    6.1095    1.4329   -3.3392 C   0  0  0  0  0  0
    6.8508    2.6676   -2.7592 C   0  0  1  0  0  0
    6.1550    3.9908   -3.1424 C   0  0  0  0  0  0
    4.3353    2.2900    0.3878 O   0  0  0  0  0  0
    9.0121    3.0581    0.4925 O   0  0  0  0  0  0
    8.9839    4.4491   -1.6377 O   0  0  0  0  0  0
    8.2650    3.7527   -0.5634 S   0  0  0  0  0  0
    7.2171    4.9552    0.2540 C   0  0  0  0  0  0
    6.8067    6.0033   -0.5087 N   0  0  0  0  0  0
    5.9802    6.9157    0.0630 C   0  0  0  0  0  0
    5.5351    6.8154    1.3828 C   0  0  0  0  0  0
    5.9596    5.7266    2.1479 C   0  0  0  0  0  0
    6.8115    4.7765    1.5807 C   0  0  0  0  0  0
    0.2063   -0.7264    0.7375 C   0  0  0  0  0  0
   -1.3079   -0.4976    0.9442 C   0  0  0  0  0  0
   -1.8159   -0.9008    2.3472 C   0  0  0  0  0  0
   -1.7936   -2.4266    2.6054 C   0  0  0  0  0  0
   -3.2426   -2.8462    2.8732 C   0  0  0  0  0  0
   -3.9065   -1.5876    3.4228 C   0  0  0  0  0  0
   -3.2712   -0.4599    2.6090 C   0  0  0  0  0  0
   -1.6626   -2.5352   -3.3811 C   0  0  0  0  0  0
   -2.9996   -1.8113   -3.6669 C   0  0  0  0  0  0
   -3.1013   -1.5051   -5.0582 O   0  0  0  0  0  0
   -2.0374   -0.6851   -5.5455 C   0  0  0  0  0  0
   -0.6726   -1.3743   -5.2991 C   0  0  0  0  0  0
   -0.3779   -1.9240   -1.4449 H   0  0  0  0  0  0
    0.4364    0.7466   -0.8071 H   0  0  0  0  0  0
    2.3347    1.4481   -1.5607 H   0  0  0  0  0  0
    4.7940   -0.2337   -1.4283 H   0  0  0  0  0  0
    6.8193    1.8289    0.6533 H   0  0  0  0  0  0
    6.9112    0.6178   -0.5850 H   0  0  0  0  0  0
    4.1860    0.5341   -3.6476 H   0  0  0  0  0  0
    4.0771    2.1813   -3.1393 H   0  0  0  0  0  0
    6.6608    0.5247   -3.0916 H   0  0  0  0  0  0
    6.1606    1.4997   -4.4271 H   0  0  0  0  0  0
    7.8297    2.6631   -3.2408 H   0  0  0  0  0  0
    5.8582    3.9923   -4.1917 H   0  0  0  0  0  0
    6.8134    4.8474   -3.0070 H   0  0  0  0  0  0
    5.2606    4.1651   -2.5430 H   0  0  0  0  0  0
    5.6715    7.7418   -0.5605 H   0  0  0  0  0  0
    4.8760    7.5616    1.8020 H   0  0  0  0  0  0
    5.6284    5.6180    3.1702 H   0  0  0  0  0  0
    7.1393    3.9232    2.1563 H   0  0  0  0  0  0
    0.4371   -1.7801    0.9035 H   0  0  0  0  0  0
    0.7483   -0.1666    1.5024 H   0  0  0  0  0  0
   -1.5265    0.5589    0.7803 H   0  0  0  0  0  0
   -1.8764   -1.0428    0.1890 H   0  0  0  0  0  0
   -1.1812   -0.4096    3.0875 H   0  0  0  0  0  0
   -1.3799   -2.9967    1.7726 H   0  0  0  0  0  0
   -1.1733   -2.6459    3.4760 H   0  0  0  0  0  0
   -3.7246   -3.1455    1.9406 H   0  0  0  0  0  0
   -3.3111   -3.6872    3.5643 H   0  0  0  0  0  0
   -4.9923   -1.6122    3.3234 H   0  0  0  0  0  0
   -3.6724   -1.4691    4.4824 H   0  0  0  0  0  0
   -3.8154   -0.3235    1.6726 H   0  0  0  0  0  0
   -3.3174    0.4877    3.1473 H   0  0  0  0  0  0
   -1.5884   -3.4137   -4.0237 H   0  0  0  0  0  0
   -1.5374   -2.9347   -2.3740 H   0  0  0  0  0  0
   -3.8359   -2.4453   -3.3728 H   0  0  0  0  0  0
   -3.0893   -0.9005   -3.0712 H   0  0  0  0  0  0
   -2.1774   -0.5083   -6.6119 H   0  0  0  0  0  0
   -2.0728    0.2974   -5.0706 H   0  0  0  0  0  0
    0.2000   -0.8735   -5.7214 H   0  0  0  0  0  0
   -0.6773   -2.3618   -5.7628 H   0  0  0  0  0  0
  1  2  1  0  0  0
  1 34  1  0  0  0
  1 38  1  0  0  0
  2  3  1  0  0  0
  2  4  2  0  0  0
  3  5  1  0  0  0
  3 39  1  0  0  0
  5  6  1  0  0  0
  5 27  1  0  0  0
  5 40  1  0  0  0
  6  7  1  0  0  0
  6  8  2  0  0  0
  7  9  1  0  0  0
  7 41  1  0  0  0
  9 10  1  0  0  0
  9 12  1  0  0  0
  9 42  1  0  0  0
 10 11  1  0  0  0
 10 17  2  0  0  0
 11 13  1  0  0  0
 11 43  1  0  0  0
 11 44  1  0  0  0
 12 14  1  0  0  0
 12 45  1  0  0  0
 12 46  1  0  0  0
 13 15  1  0  0  0
 13 20  1  0  0  0
 14 15  1  0  0  0
 14 47  1  0  0  0
 14 48  1  0  0  0
 15 16  1  0  0  0
 15 49  1  0  0  0
 16 50  1  0  0  0
 16 51  1  0  0  0
 16 52  1  0  0  0
 18 20  2  0  0  0
 19 20  2  0  0  0
 20 21  1  0  0  0
 21 22  2  0  0  0
 21 26  1  0  0  0
 22 23  1  0  0  0
 23 24  2  0  0  0
 23 53  1  0  0  0
 24 25  1  0  0  0
 24 54  1  0  0  0
 25 26  2  0  0  0
 25 55  1  0  0  0
 26 56  1  0  0  0
 27 28  1  0  0  0
 27 57  1  0  0  0
 27 58  1  0  0  0
 28 29  1  0  0  0
 28 59  1  0  0  0
 28 60  1  0  0  0
 29 30  1  0  0  0
 29 33  1  0  0  0
 29 61  1  0  0  0
 30 31  1  0  0  0
 30 62  1  0  0  0
 30 63  1  0  0  0
 31 32  1  0  0  0
 31 64  1  0  0  0
 31 65  1  0  0  0
 32 33  1  0  0  0
 32 66  1  0  0  0
 32 67  1  0  0  0
 33 68  1  0  0  0
 33 69  1  0  0  0
 34 35  1  0  0  0
 34 70  1  0  0  0
 34 71  1  0  0  0
 35 36  1  0  0  0
 35 72  1  0  0  0
 35 73  1  0  0  0
 36 37  1  0  0  0
 37 38  1  0  0  0
 37 74  1  0  0  0
 37 75  1  0  0  0
 38 76  1  0  0  0
 38 77  1  0  0  0
M  END
> <chembl_id>
CHEMBL1807700

> <chembl_pref_name>
None

> <i_m_ct_stereo_status>
1

> <s_m_source_file>
sdf/inactives_sanitized.sdf

> <i_m_source_file_index>
358

> <i_lp_mmshare_version>
49012

> <i_f3d_flags>
0

> <s_epik_input>
W0NIMl0xW0NIMl1PW0NIMl1bQ0gyXU4xQyg9TylbTkhdW0NAQEhdKFtDSDJdW0NIMl1bQ0hdMltDSDJdW0NIMl1bQ0gyXVtDSDJdMilDKD1PKVtOSF1bQ0BASF0zQyg9TylbQ0gyXU4oW0NASF0oW0NIM10pW0NIMl1bQ0gyXTMpUyg9TykoPU8pYzRuW2NIXVtjSF1bY0hdW2NIXTQ=

> <s_epik_cmdline>
J2VwaWtfcHl0aG9uJywgJy1waHQnLCAnMC41JywgJy1waCcsICc3LjUnLCAnLW50JywgJy1tYScsICcyMDAnLCAnLWltYWUnLCAnPGluZmlsZS5tYWU+JywgJy1vbWFlJywgJzxvdXRmaWxlLm1hZT4n

> <r_lp_tautomer_probability>
1

> <r_epik_Ionization_Penalty>
  0.0000

> <r_epik_Ionization_Penalty_Charging>
  0.0000

> <r_epik_Ionization_Penalty_Neutral>
  0.0000

> <r_epik_State_Penalty>
 -0.0000

> <r_epik_Charging_Adjusted_Penalty>
0

> <i_epik_Tot_Q>
0

> <i_epik_Tot_abs_Q>
0

> <s_lp_Force_Field>
OPLS3e

> <r_lp_Energy>
44.428368

> <b_lp_Chiralities_Consistent>
1

> <s_lp_Variant>
sdf/inactives_sanitized.sdf:358-1

$$$$
sdf/inactives_sanitized.sdf:359
                    3D
 Schrodinger Suite 2020-1.
 69 71  0  0  1  0            999 V2000
   -3.3392    1.4104    0.8064 N   0  0  2  0  0  0
   -1.2135    0.6712   -0.2791 C   0  0  0  0  0  0
   -0.2474   -0.1404    0.1904 N   0  0  0  0  0  0
   -2.6737    0.2901    0.0846 C   0  0  2  0  0  0
   -2.7217    1.6706    2.1274 C   0  0  0  0  0  0
   -3.1500    2.9885    2.8084 C   0  0  0  0  0  0
    1.6214   -0.6533   -1.3119 C   0  0  0  0  0  0
    1.1934    0.0313   -0.0203 C   0  0  2  0  0  0
    2.0373   -0.0091   -2.4200 C   0  0  0  0  0  0
   -2.9051    4.2917    2.1080 C   0  0  0  0  0  0
   -0.9767    1.6752   -0.9552 O   0  0  0  0  0  0
   -3.7343    2.9093    3.8902 O   0  0  0  0  0  0
   -1.9972    4.3961    1.0476 C   0  0  0  0  0  0
   -3.5687    5.4441    2.5475 C   0  0  0  0  0  0
    2.0139   -0.4262    1.2235 C   0  0  2  0  0  0
    2.4663   -0.6200   -3.6967 C   0  0  0  0  0  0
   -4.7847    1.1566    0.9820 C   0  0  0  0  0  0
   -2.4494    6.7660    0.8515 C   0  0  0  0  0  0
   -3.3478    6.6693    1.9245 C   0  0  0  0  0  0
   -1.7786    5.6210    0.4240 C   0  0  0  0  0  0
   -2.1684    7.9365    0.1732 O   0  0  0  0  0  0
   -3.3855   -0.1194   -1.2382 C   0  0  0  0  0  0
    1.4799    0.1229    2.5770 C   0  0  0  0  0  0
    3.5240   -0.1388    1.0637 C   0  0  0  0  0  0
    2.8592    0.2263   -4.7396 C   0  0  0  0  0  0
    2.4952   -2.0080   -3.8945 C   0  0  0  0  0  0
   -2.8269    9.1381    0.5598 C   0  0  0  0  0  0
   -5.5147    0.8328   -0.3340 C   0  0  0  0  0  0
    1.4328    1.6569    2.6974 C   0  0  0  0  0  0
   -4.8847   -0.3669   -1.0447 C   0  0  0  0  0  0
    3.2749   -0.3011   -5.9593 C   0  0  0  0  0  0
    2.9106   -2.5366   -5.1140 C   0  0  0  0  0  0
    3.2989   -1.6811   -6.1413 C   0  0  0  0  0  0
   -0.5242   -0.9778    0.6812 H   0  0  0  0  0  0
   -2.6254   -0.5833    0.7407 H   0  0  0  0  0  0
   -2.9384    0.8351    2.7953 H   0  0  0  0  0  0
   -1.6355    1.6943    2.0527 H   0  0  0  0  0  0
    1.5688   -1.7312   -1.2936 H   0  0  0  0  0  0
    1.3963    1.1000   -0.1300 H   0  0  0  0  0  0
    2.0653    1.0713   -2.3851 H   0  0  0  0  0  0
   -1.4438    3.5399    0.6973 H   0  0  0  0  0  0
   -4.2669    5.4032    3.3718 H   0  0  0  0  0  0
    1.9140   -1.5117    1.2858 H   0  0  0  0  0  0
   -4.9174    0.3328    1.6861 H   0  0  0  0  0  0
   -5.2612    2.0239    1.4403 H   0  0  0  0  0  0
   -3.8828    7.5328    2.2895 H   0  0  0  0  0  0
   -1.0784    5.6812   -0.3964 H   0  0  0  0  0  0
   -3.2636    0.6580   -1.9964 H   0  0  0  0  0  0
   -2.9231   -1.0150   -1.6574 H   0  0  0  0  0  0
    0.4806   -0.2720    2.7649 H   0  0  0  0  0  0
    2.0927   -0.2708    3.3891 H   0  0  0  0  0  0
    3.7194    0.9257    0.9313 H   0  0  0  0  0  0
    3.9419   -0.6572    0.2004 H   0  0  0  0  0  0
    4.0860   -0.4729    1.9364 H   0  0  0  0  0  0
    2.8449    1.2992   -4.6101 H   0  0  0  0  0  0
    2.2001   -2.6922   -3.1137 H   0  0  0  0  0  0
   -2.4888    9.9546   -0.0779 H   0  0  0  0  0  0
   -2.5953    9.4077    1.5915 H   0  0  0  0  0  0
   -3.9089    9.0560    0.4447 H   0  0  0  0  0  0
   -6.5618    0.6161   -0.1200 H   0  0  0  0  0  0
   -5.5272    1.7133   -0.9782 H   0  0  0  0  0  0
    1.0578    1.9546    3.6769 H   0  0  0  0  0  0
    0.7734    2.1006    1.9513 H   0  0  0  0  0  0
    2.4212    2.1003    2.5777 H   0  0  0  0  0  0
   -5.0366   -1.2704   -0.4521 H   0  0  0  0  0  0
   -5.3703   -0.5390   -2.0059 H   0  0  0  0  0  0
    3.5776    0.3575   -6.7602 H   0  0  0  0  0  0
    2.9317   -3.6063   -5.2620 H   0  0  0  0  0  0
    3.6208   -2.0917   -7.0871 H   0  0  0  0  0  0
  1  4  1  0  0  0
  1  5  1  0  0  0
  1 17  1  0  0  0
  2  4  1  0  0  0
  2  3  1  0  0  0
  2 11  2  0  0  0
  3  8  1  0  0  0
  3 34  1  0  0  0
  4 22  1  0  0  0
  4 35  1  0  0  0
  5  6  1  0  0  0
  5 36  1  0  0  0
  5 37  1  0  0  0
  6 10  1  0  0  0
  6 12  2  0  0  0
  7  8  1  0  0  0
  7  9  2  0  0  0
  7 38  1  0  0  0
  8 15  1  0  0  0
  8 39  1  0  0  0
  9 16  1  0  0  0
  9 40  1  0  0  0
 10 13  2  0  0  0
 10 14  1  0  0  0
 13 20  1  0  0  0
 13 41  1  0  0  0
 14 19  2  0  0  0
 14 42  1  0  0  0
 15 23  1  0  0  0
 15 24  1  0  0  0
 15 43  1  0  0  0
 16 25  2  0  0  0
 16 26  1  0  0  0
 17 28  1  0  0  0
 17 44  1  0  0  0
 17 45  1  0  0  0
 18 19  1  0  0  0
 18 21  1  0  0  0
 18 20  2  0  0  0
 19 46  1  0  0  0
 20 47  1  0  0  0
 21 27  1  0  0  0
 22 30  1  0  0  0
 22 48  1  0  0  0
 22 49  1  0  0  0
 23 29  1  0  0  0
 23 50  1  0  0  0
 23 51  1  0  0  0
 24 52  1  0  0  0
 24 53  1  0  0  0
 24 54  1  0  0  0
 25 31  1  0  0  0
 25 55  1  0  0  0
 26 32  2  0  0  0
 26 56  1  0  0  0
 27 57  1  0  0  0
 27 58  1  0  0  0
 27 59  1  0  0  0
 28 30  1  0  0  0
 28 60  1  0  0  0
 28 61  1  0  0  0
 29 62  1  0  0  0
 29 63  1  0  0  0
 29 64  1  0  0  0
 30 65  1  0  0  0
 30 66  1  0  0  0
 31 33  2  0  0  0
 31 67  1  0  0  0
 32 33  1  0  0  0
 32 68  1  0  0  0
 33 69  1  0  0  0
M  END
> <chembl_id>
CHEMBL98199

> <chembl_pref_name>
None

> <i_m_ct_stereo_status>
1

> <s_m_source_file>
sdf/inactives_sanitized.sdf

> <i_m_source_file_index>
359

> <i_lp_mmshare_version>
49012

> <i_f3d_flags>
0

> <s_epik_input>
W2NIXTFbY0hdYyhPW0NIM10pW2NIXVtjSF1jMUMoPU8pW0NIMl1OMltDQEBIXShbQ0gyXVtDSDJdW0NIMl1bQ0gyXTIpQyg9TylbTkhdW0NAQEhdKFtDQEBIXShbQ0gzXSlbQ0gyXVtDSDNdKS9bQ0hdPVtDSF0vYzNbY0hdW2NIXVtjSF1bY0hdW2NIXTM=

> <s_epik_cmdline>
J2VwaWtfcHl0aG9uJywgJy1waHQnLCAnMC41JywgJy1waCcsICc3LjUnLCAnLW50JywgJy1tYScsICcyMDAnLCAnLWltYWUnLCAnPGluZmlsZS5tYWU+JywgJy1vbWFlJywgJzxvdXRmaWxlLm1hZT4n

> <r_lp_tautomer_probability>
0.99990000499975

> <r_epik_Ionization_Penalty>
  0.0320

> <r_epik_Ionization_Penalty_Charging>
  0.0000

> <r_epik_Ionization_Penalty_Neutral>
  0.0320

> <r_epik_State_Penalty>
  0.0264

> <r_epik_Charging_Adjusted_Penalty>
0.0264400689711553

> <i_epik_Tot_Q>
0

> <i_epik_Tot_abs_Q>
0

> <s_lp_Force_Field>
OPLS3e

> <r_lp_Energy>
38.704937

> <b_lp_Chiralities_Consistent>
1

> <s_lp_Variant>
sdf/inactives_sanitized.sdf:359-1

$$$$
sdf/inactives_sanitized.sdf:360
                    3D
 Schrodinger Suite 2020-1.
 41 43  0  0  1  0            999 V2000
   -7.3546   -3.0043    1.7906 C   0  0  0  0  0  0
   -7.4787   -1.7576    1.0555 N   0  0  0  0  0  0
   -8.6503   -1.1335    0.6873 C   0  0  0  0  0  0
   -8.4800   -0.0198    0.0238 N   0  0  0  0  0  0
   -7.1168    0.1125   -0.0654 C   0  0  0  0  0  0
   -6.3184    1.1045   -0.6577 C   0  0  0  0  0  0
   -4.9647    1.0314   -0.6264 N   0  0  0  0  0  0
   -4.3466   -0.0206   -0.0165 C   0  0  0  0  0  0
   -5.0581   -1.0586    0.6109 C   0  0  0  0  0  0
   -6.4547   -0.9683    0.5708 C   0  0  0  0  0  0
   -2.8470    0.0038   -0.0368 C   0  0  0  0  0  0
   -2.1369    1.2082   -0.1353 C   0  0  0  0  0  0
   -0.7462    1.2250   -0.1497 C   0  0  0  0  0  0
   -0.0141    0.0382   -0.0687 C   0  0  0  0  0  0
    1.5112    0.1473   -0.0858 C   0  0  0  0  0  0
    2.0998    0.4921    1.2991 C   0  0  0  0  0  0
    3.6322    0.6403    1.3155 C   0  0  0  0  0  0
    4.2652   -0.5669    0.9430 O   0  0  0  0  0  0
   -0.6989   -1.1922    0.0259 C   0  0  0  0  0  0
   -2.1027   -1.1828    0.0402 C   0  0  0  0  0  0
    0.0429   -2.5353    0.1152 C   0  0  0  0  0  0
   -0.7791   -3.5628    0.3394 F   0  0  0  0  0  0
    0.6799   -2.7733   -1.0317 F   0  0  0  0  0  0
    0.9314   -2.5174    1.1088 F   0  0  0  0  0  0
   -6.8637    2.2705   -1.3368 C   0  0  0  0  0  0
   -7.2977    3.1977   -1.8766 N   0  0  0  0  0  0
   -6.7609   -2.8347    2.6894 H   0  0  0  0  0  0
   -6.8548   -3.7443    1.1645 H   0  0  0  0  0  0
   -8.3398   -3.3768    2.0750 H   0  0  0  0  0  0
   -9.6011   -1.5727    0.9535 H   0  0  0  0  0  0
   -4.5635   -1.8785    1.1098 H   0  0  0  0  0  0
   -2.6605    2.1514   -0.1936 H   0  0  0  0  0  0
   -0.2349    2.1742   -0.2212 H   0  0  0  0  0  0
    1.9626   -0.7645   -0.4731 H   0  0  0  0  0  0
    1.7955    0.9223   -0.7997 H   0  0  0  0  0  0
    1.6623    1.4283    1.6487 H   0  0  0  0  0  0
    1.8041   -0.2593    2.0323 H   0  0  0  0  0  0
    3.9426    1.3911    0.5880 H   0  0  0  0  0  0
    3.9891    0.9618    2.2944 H   0  0  0  0  0  0
    5.2152   -0.4279    0.9468 H   0  0  0  0  0  0
   -2.6297   -2.1232    0.0962 H   0  0  0  0  0  0
  1  2  1  0  0  0
  1 27  1  0  0  0
  1 28  1  0  0  0
  1 29  1  0  0  0
  2  3  1  0  0  0
  2 10  1  0  0  0
  3  4  2  0  0  0
  3 30  1  0  0  0
  4  5  1  0  0  0
  5  6  2  0  0  0
  5 10  1  0  0  0
  6  7  1  0  0  0
  6 25  1  0  0  0
  7  8  2  0  0  0
  8  9  1  0  0  0
  8 11  1  0  0  0
  9 10  2  0  0  0
  9 31  1  0  0  0
 11 12  2  0  0  0
 11 20  1  0  0  0
 12 13  1  0  0  0
 12 32  1  0  0  0
 13 14  2  0  0  0
 13 33  1  0  0  0
 14 15  1  0  0  0
 14 19  1  0  0  0
 15 16  1  0  0  0
 15 34  1  0  0  0
 15 35  1  0  0  0
 16 17  1  0  0  0
 16 36  1  0  0  0
 16 37  1  0  0  0
 17 18  1  0  0  0
 17 38  1  0  0  0
 17 39  1  0  0  0
 18 40  1  0  0  0
 19 20  2  0  0  0
 19 21  1  0  0  0
 20 41  1  0  0  0
 21 22  1  0  0  0
 21 23  1  0  0  0
 21 24  1  0  0  0
 25 26  3  0  0  0
M  END
> <chembl_id>
CHEMBL1208910

> <chembl_pref_name>
None

> <s_m_source_file>
sdf/inactives_sanitized.sdf

> <i_m_source_file_index>
360

> <i_lp_mmshare_version>
49012

> <i_m_ct_stereo_status>
1

> <i_f3d_flags>
0

> <s_epik_input>
bjFbY0hdbihbQ0gzXSljKGMxMilbY0hdYyhuYzJDI04pLWMzW2NIXVtjSF1jKGMoW2NIXTMpQyhGKShGKUYpW0NIMl1bQ0gyXVtDSDJdW09IXQ==

> <s_epik_cmdline>
J2VwaWtfcHl0aG9uJywgJy1waHQnLCAnMC41JywgJy1waCcsICc3LjUnLCAnLW50JywgJy1tYScsICcyMDAnLCAnLWltYWUnLCAnPGluZmlsZS5tYWU+JywgJy1vbWFlJywgJzxvdXRmaWxlLm1hZT4n

> <r_lp_tautomer_probability>
1

> <r_epik_Ionization_Penalty>
  0.0000

> <r_epik_Ionization_Penalty_Charging>
  0.0000

> <r_epik_Ionization_Penalty_Neutral>
  0.0000

> <r_epik_State_Penalty>
 -0.0000

> <r_epik_Charging_Adjusted_Penalty>
2.1337785140458e-07

> <i_epik_Tot_Q>
0

> <i_epik_Tot_abs_Q>
0

> <s_lp_Force_Field>
OPLS3e

> <r_lp_Energy>
31.764143

> <b_lp_Chiralities_Consistent>
1

> <s_lp_Variant>
sdf/inactives_sanitized.sdf:360-1

$$$$
sdf/inactives_sanitized.sdf:361
                    3D
 Schrodinger Suite 2020-1.
 38 40  0  0  1  0            999 V2000
   -0.6988    1.1993   -0.0211 N   0  0  0  0  0  0
   -0.0711   -0.0107    0.0009 C   0  0  0  0  0  0
   -0.7672   -1.2312    0.0178 C   0  0  0  0  0  0
   -2.0536    1.2625   -0.0360 C   0  0  0  0  0  0
   -3.1817   -2.0862   -0.0005 N   0  0  0  0  0  0
   -4.3590   -1.3723   -0.0240 C   0  0  0  0  0  0
   -4.2012   -0.0744   -0.0407 N   0  0  0  0  0  0
   -2.8398    0.0981   -0.0287 C   0  0  0  0  0  0
   -2.1652   -1.1500   -0.0021 C   0  0  0  0  0  0
   -2.6140    2.6055   -0.0571 C   0  0  0  0  0  0
   -3.0602    3.6731   -0.0734 N   0  0  0  0  0  0
    1.4249    0.0325    0.0220 C   0  0  0  0  0  0
    2.1812   -0.9789   -0.5853 C   0  0  0  0  0  0
    3.5830   -0.9638   -0.5750 C   0  0  0  0  0  0
    4.2603    0.0939    0.0556 C   0  0  0  0  0  0
    3.5091    1.1122    0.6631 C   0  0  0  0  0  0
    2.1174    1.0788    0.6454 C   0  0  0  0  0  0
    4.3697   -2.0945   -1.2483 C   0  0  0  0  0  0
    5.1454   -1.5938   -2.2105 F   0  0  0  0  0  0
    5.1446   -2.7015   -0.3484 F   0  0  0  0  0  0
    3.5795   -3.0191   -1.7979 F   0  0  0  0  0  0
    5.6443    0.0721    0.0421 O   0  0  0  0  0  0
    6.3767    1.1291    0.6548 C   0  0  0  0  0  0
    7.8726    0.8465    0.4890 C   0  0  0  0  0  0
   -3.0639   -3.5345    0.0155 C   0  0  0  0  0  0
   -0.2555   -2.1814    0.0508 H   0  0  0  0  0  0
   -5.3039   -1.8965   -0.0276 H   0  0  0  0  0  0
    1.6675   -1.7883   -1.0824 H   0  0  0  0  0  0
    3.9874    1.9430    1.1587 H   0  0  0  0  0  0
    1.5775    1.8796    1.1297 H   0  0  0  0  0  0
    6.1309    2.0842    0.1875 H   0  0  0  0  0  0
    6.1337    1.1963    1.7167 H   0  0  0  0  0  0
    8.4720    1.6342    0.9458 H   0  0  0  0  0  0
    8.1470    0.7876   -0.5647 H   0  0  0  0  0  0
    8.1485   -0.0975    0.9597 H   0  0  0  0  0  0
   -2.0152   -3.8324    0.0403 H   0  0  0  0  0  0
   -3.5326   -3.9437   -0.8804 H   0  0  0  0  0  0
   -3.5706   -3.9280    0.8971 H   0  0  0  0  0  0
  1  2  2  0  0  0
  1  4  1  0  0  0
  2  3  1  0  0  0
  2 12  1  0  0  0
  3  9  2  0  0  0
  3 26  1  0  0  0
  4  8  2  0  0  0
  4 10  1  0  0  0
  5  6  1  0  0  0
  5  9  1  0  0  0
  5 25  1  0  0  0
  6  7  2  0  0  0
  6 27  1  0  0  0
  7  8  1  0  0  0
  8  9  1  0  0  0
 10 11  3  0  0  0
 12 13  2  0  0  0
 12 17  1  0  0  0
 13 14  1  0  0  0
 13 28  1  0  0  0
 14 15  2  0  0  0
 14 18  1  0  0  0
 15 16  1  0  0  0
 15 22  1  0  0  0
 16 17  2  0  0  0
 16 29  1  0  0  0
 17 30  1  0  0  0
 18 19  1  0  0  0
 18 20  1  0  0  0
 18 21  1  0  0  0
 22 23  1  0  0  0
 23 24  1  0  0  0
 23 31  1  0  0  0
 23 32  1  0  0  0
 24 33  1  0  0  0
 24 34  1  0  0  0
 24 35  1  0  0  0
 25 36  1  0  0  0
 25 37  1  0  0  0
 25 38  1  0  0  0
M  END
> <chembl_id>
CHEMBL1208908

> <chembl_pref_name>
None

> <s_m_source_file>
sdf/inactives_sanitized.sdf

> <i_m_source_file_index>
361

> <i_lp_mmshare_version>
49012

> <i_m_ct_stereo_status>
1

> <i_f3d_flags>
0

> <s_epik_input>
bjFbY0hdbihbQ0gzXSljKGMxMilbY0hdYyhuYzJDI04pLWMzW2NIXWMoQyhGKShGKUYpYyhbY0hdW2NIXTMpT1tDSDJdW0NIM10=

> <s_epik_cmdline>
J2VwaWtfcHl0aG9uJywgJy1waHQnLCAnMC41JywgJy1waCcsICc3LjUnLCAnLW50JywgJy1tYScsICcyMDAnLCAnLWltYWUnLCAnPGluZmlsZS5tYWU+JywgJy1vbWFlJywgJzxvdXRmaWxlLm1hZT4n

> <r_lp_tautomer_probability>
1

> <r_epik_Ionization_Penalty>
  0.0000

> <r_epik_Ionization_Penalty_Charging>
  0.0000

> <r_epik_Ionization_Penalty_Neutral>
  0.0000

> <r_epik_State_Penalty>
 -0.0000

> <r_epik_Charging_Adjusted_Penalty>
2.10485508124941e-07

> <i_epik_Tot_Q>
0

> <i_epik_Tot_abs_Q>
0

> <s_lp_Force_Field>
OPLS3e

> <r_lp_Energy>
29.874689

> <b_lp_Chiralities_Consistent>
1

> <s_lp_Variant>
sdf/inactives_sanitized.sdf:361-1

$$$$
sdf/inactives_sanitized.sdf:362
                    3D
 Schrodinger Suite 2020-1.
 51 54  0  0  1  0            999 V2000
    8.2832   -0.3933    1.2213 C   0  0  0  0  0  0
    7.8430    0.9155    0.5312 C   0  0  0  0  0  0
    8.2807    0.8589   -0.9480 C   0  0  0  0  0  0
    9.8100    0.7314   -1.0694 C   0  0  0  0  0  0
   10.2699   -0.5262   -0.3039 N   0  3  0  0  0  0
    9.8126   -0.5607    1.1686 C   0  0  0  0  0  0
   -0.7433    1.2001   -0.0233 N   0  0  0  0  0  0
   -0.1120   -0.0082   -0.0038 C   0  0  0  0  0  0
   -0.8051   -1.2305    0.0102 C   0  0  0  0  0  0
   -2.0981    1.2605   -0.0364 C   0  0  0  0  0  0
   -3.2142   -2.0907   -0.0051 N   0  0  0  0  0  0
   -4.3953   -1.3819   -0.0260 C   0  0  0  0  0  0
   -4.2424   -0.0831   -0.0403 N   0  0  0  0  0  0
   -2.8814    0.0945   -0.0302 C   0  0  0  0  0  0
   -2.2029   -1.1510   -0.0070 C   0  0  0  0  0  0
   -2.6610    2.6024   -0.0526 C   0  0  0  0  0  0
   -3.1088    3.6695   -0.0651 N   0  0  0  0  0  0
    1.3837    0.0420    0.0224 C   0  0  0  0  0  0
    2.1493   -0.9671   -0.5780 C   0  0  0  0  0  0
    3.5509   -0.9421   -0.5600 C   0  0  0  0  0  0
    4.2168    0.1222    0.0706 C   0  0  0  0  0  0
    3.4575    1.1379    0.6709 C   0  0  0  0  0  0
    2.0666    1.0947    0.6460 C   0  0  0  0  0  0
    4.3524   -2.0678   -1.2240 C   0  0  0  0  0  0
    5.1311   -1.5622   -2.1817 F   0  0  0  0  0  0
    5.1273   -2.6636   -0.3165 F   0  0  0  0  0  0
    3.5751   -3.0016   -1.7761 F   0  0  0  0  0  0
   -3.0694   -3.5360    0.0096 C   0  0  0  0  0  0
    5.5998    0.1067    0.0645 O   0  0  0  0  0  0
    6.3279    1.1675    0.6781 C   0  0  0  0  0  0
    7.7788   -1.2546    0.7790 H   0  0  0  0  0  0
    7.9540   -0.3867    2.2615 H   0  0  0  0  0  0
    8.3692    1.7444    1.0092 H   0  0  0  0  0  0
    7.7764    0.0446   -1.4717 H   0  0  0  0  0  0
    7.9496    1.7626   -1.4620 H   0  0  0  0  0  0
   10.1416    0.5979   -2.0996 H   0  0  0  0  0  0
   10.3420    1.5730   -0.6235 H   0  0  0  0  0  0
    9.9063   -1.3428   -0.7750 H   0  0  0  0  0  0
   10.3447    0.2469    1.6735 H   0  0  0  0  0  0
   10.1460   -1.5192    1.5677 H   0  0  0  0  0  0
   -0.2940   -2.1815    0.0409 H   0  0  0  0  0  0
   -5.3389   -1.9081   -0.0294 H   0  0  0  0  0  0
    1.6439   -1.7819   -1.0749 H   0  0  0  0  0  0
    3.9277    1.9736    1.1662 H   0  0  0  0  0  0
    1.5192    1.8937    1.1250 H   0  0  0  0  0  0
   -4.0492   -4.0159    0.0139 H   0  0  0  0  0  0
   -2.5176   -3.8339    0.9018 H   0  0  0  0  0  0
   -2.5170   -3.8509   -0.8764 H   0  0  0  0  0  0
    6.0684    2.1200    0.2121 H   0  0  0  0  0  0
    6.0697    1.2379    1.7365 H   0  0  0  0  0  0
   11.2775   -0.5914   -0.3428 H   0  0  0  0  0  0
  1  6  1  0  0  0
  1  2  1  0  0  0
  1 31  1  0  0  0
  1 32  1  0  0  0
  2  3  1  0  0  0
  2 30  1  0  0  0
  2 33  1  0  0  0
  3  4  1  0  0  0
  3 34  1  0  0  0
  3 35  1  0  0  0
  4  5  1  0  0  0
  4 36  1  0  0  0
  4 37  1  0  0  0
  5  6  1  0  0  0
  5 38  1  0  0  0
  5 51  1  0  0  0
  6 39  1  0  0  0
  6 40  1  0  0  0
  7  8  2  0  0  0
  7 10  1  0  0  0
  8  9  1  0  0  0
  8 18  1  0  0  0
  9 15  2  0  0  0
  9 41  1  0  0  0
 10 16  1  0  0  0
 10 14  2  0  0  0
 11 15  1  0  0  0
 11 28  1  0  0  0
 11 12  1  0  0  0
 12 13  2  0  0  0
 12 42  1  0  0  0
 13 14  1  0  0  0
 14 15  1  0  0  0
 16 17  3  0  0  0
 18 19  2  0  0  0
 18 23  1  0  0  0
 19 20  1  0  0  0
 19 43  1  0  0  0
 20 21  2  0  0  0
 20 24  1  0  0  0
 21 22  1  0  0  0
 21 29  1  0  0  0
 22 23  2  0  0  0
 22 44  1  0  0  0
 23 45  1  0  0  0
 24 25  1  0  0  0
 24 26  1  0  0  0
 24 27  1  0  0  0
 28 46  1  0  0  0
 28 47  1  0  0  0
 28 48  1  0  0  0
 29 30  1  0  0  0
 30 49  1  0  0  0
 30 50  1  0  0  0
M  CHG  1   5   1
M  END
> <chembl_id>
CHEMBL1209036

> <chembl_pref_name>
None

> <s_m_source_file>
sdf/inactives_sanitized.sdf

> <i_m_source_file_index>
362

> <i_lp_mmshare_version>
49012

> <i_m_ct_stereo_status>
1

> <i_f3d_flags>
0

> <s_epik_input>
W0NIMl0xW0NIMl1bTkhdW0NIMl1bQ0gyXVtDSF0xW0NIMl1PYyhbY0hdW2NIXTIpYyhDKEYpKEYpRilbY0hdYzItYyhuYzNDI04pW2NIXWMoYzM0KW4oW2NIXW40KVtDSDNd

> <s_epik_cmdline>
J2VwaWtfcHl0aG9uJywgJy1waHQnLCAnMC41JywgJy1waCcsICc3LjUnLCAnLW50JywgJy1tYScsICcyMDAnLCAnLWltYWUnLCAnPGluZmlsZS5tYWU+JywgJy1vbWFlJywgJzxvdXRmaWxlLm1hZT4n

> <r_lp_tautomer_probability>
1

> <r_epik_Ionization_Penalty>
  0.0014

> <r_epik_Ionization_Penalty_Charging>
  0.0014

> <r_epik_Ionization_Penalty_Neutral>
  0.0000

> <r_epik_State_Penalty>
 -0.0000

> <r_epik_Charging_Adjusted_Penalty>
0.0014130640998789

> <i_epik_Tot_Q>
1

> <i_epik_Tot_abs_Q>
1

> <s_lp_Force_Field>
OPLS3e

> <r_lp_Energy>
40.110327

> <b_lp_Chiralities_Consistent>
1

> <s_lp_Variant>
sdf/inactives_sanitized.sdf:362-1

$$$$
sdf/inactives_sanitized.sdf:363
                    3D
 Schrodinger Suite 2020-1.
 35 37  0  0  1  0            999 V2000
   -0.6366    1.1839    0.0170 N   0  0  0  0  0  0
   -0.0342   -0.0389   -0.0125 C   0  0  0  0  0  0
   -0.7532   -1.2460   -0.0310 C   0  0  0  0  0  0
   -1.9899    1.2753    0.0363 C   0  0  0  0  0  0
   -4.3473   -1.3176    0.0041 C   0  0  0  0  0  0
   -4.1655   -0.0222    0.0322 N   0  0  0  0  0  0
   -2.7996    0.1272    0.0212 C   0  0  0  0  0  0
   -2.1470   -1.1319   -0.0134 C   0  0  0  0  0  0
   -2.5218    2.6295    0.0711 C   0  0  0  0  0  0
   -2.9452    3.7062    0.0987 N   0  0  0  0  0  0
    1.4604   -0.0219   -0.0411 C   0  0  0  0  0  0
    2.2034   -1.0152    0.6112 C   0  0  0  0  0  0
    3.6066   -1.0234    0.6009 C   0  0  0  0  0  0
    4.2884    0.0068   -0.0783 C   0  0  0  0  0  0
    3.5524    0.9940   -0.7489 C   0  0  0  0  0  0
    2.1615    0.9803   -0.7231 C   0  0  0  0  0  0
    6.5233    1.0629   -0.0587 C   0  0  0  0  0  0
    6.1575    2.2338    0.0473 O   0  0  0  0  0  0
    8.0161    0.7531   -0.1093 C   0  0  0  0  0  0
    4.3643   -2.1412    1.3348 C   0  0  0  0  0  0
    5.1204   -2.8177    0.4691 F   0  0  0  0  0  0
    5.1539   -1.6150    2.2719 F   0  0  0  0  0  0
    3.5504   -3.0136    1.9329 F   0  0  0  0  0  0
   -3.1795   -2.0413   -0.0246 N   0  0  0  0  0  0
    5.6971   -0.0026   -0.1138 N   0  0  0  0  0  0
   -0.2620   -2.2074   -0.0667 H   0  0  0  0  0  0
   -5.2977   -1.8313    0.0013 H   0  0  0  0  0  0
    1.6738   -1.7908    1.1445 H   0  0  0  0  0  0
    4.0476    1.7763   -1.3049 H   0  0  0  0  0  0
    1.6280    1.7576   -1.2508 H   0  0  0  0  0  0
    8.2057   -0.3206   -0.1332 H   0  0  0  0  0  0
    8.5156    1.1674    0.7668 H   0  0  0  0  0  0
    8.4604    1.1988   -0.9995 H   0  0  0  0  0  0
   -3.1436   -3.0503   -0.0487 H   0  0  0  0  0  0
    6.1235   -0.9172   -0.0812 H   0  0  0  0  0  0
  1  2  2  0  0  0
  1  4  1  0  0  0
  2 11  1  0  0  0
  2  3  1  0  0  0
  3  8  2  0  0  0
  3 26  1  0  0  0
  4  9  1  0  0  0
  4  7  2  0  0  0
  5  6  2  0  0  0
  5 24  1  0  0  0
  5 27  1  0  0  0
  6  7  1  0  0  0
  7  8  1  0  0  0
  8 24  1  0  0  0
  9 10  3  0  0  0
 11 12  2  0  0  0
 11 16  1  0  0  0
 12 13  1  0  0  0
 12 28  1  0  0  0
 13 14  2  0  0  0
 13 20  1  0  0  0
 14 15  1  0  0  0
 14 25  1  0  0  0
 15 16  2  0  0  0
 15 29  1  0  0  0
 16 30  1  0  0  0
 17 18  2  0  0  0
 17 19  1  0  0  0
 17 25  1  0  0  0
 19 31  1  0  0  0
 19 32  1  0  0  0
 19 33  1  0  0  0
 20 21  1  0  0  0
 20 22  1  0  0  0
 20 23  1  0  0  0
 24 34  1  0  0  0
 25 35  1  0  0  0
M  END
> <chembl_id>
CHEMBL1208847

> <chembl_pref_name>
None

> <s_m_source_file>
sdf/inactives_sanitized.sdf

> <i_m_source_file_index>
363

> <i_lp_mmshare_version>
49012

> <i_m_ct_stereo_status>
1

> <i_f3d_flags>
0

> <s_epik_input>
bjFbY0hdW25IXWMoYzEyKVtjSF1jKG5jMkMjTiktYzNbY0hdYyhDKEYpKEYpRiljKFtjSF1bY0hdMylbTkhdQyg9TylbQ0gzXQ==

> <s_epik_cmdline>
J2VwaWtfcHl0aG9uJywgJy1waHQnLCAnMC41JywgJy1waCcsICc3LjUnLCAnLW50JywgJy1tYScsICcyMDAnLCAnLWltYWUnLCAnPGluZmlsZS5tYWU+JywgJy1vbWFlJywgJzxvdXRmaWxlLm1hZT4n

> <r_lp_tautomer_probability>
1

> <r_epik_Ionization_Penalty>
  0.0457

> <r_epik_Ionization_Penalty_Charging>
  0.0000

> <r_epik_Ionization_Penalty_Neutral>
  0.0457

> <r_epik_State_Penalty>
 -0.0000

> <r_epik_Charging_Adjusted_Penalty>
9.8662176494056e-08

> <i_epik_Tot_Q>
0

> <i_epik_Tot_abs_Q>
0

> <s_lp_Force_Field>
OPLS3e

> <r_lp_Energy>
26.915209

> <b_lp_Chiralities_Consistent>
1

> <s_lp_Variant>
sdf/inactives_sanitized.sdf:363-1

$$$$
sdf/inactives_sanitized.sdf:364
                    3D
 Schrodinger Suite 2020-1.
 34 35  0  0  1  0            999 V2000
   -2.2053    1.1274   -0.0097 C   0  0  0  0  0  0
   -2.8441   -0.1079    0.0942 C   0  0  0  0  0  0
   -2.1060   -1.2850    0.1710 C   0  0  0  0  0  0
   -0.7145   -1.2367    0.1429 C   0  0  0  0  0  0
   -0.0313   -0.0144    0.0350 C   0  0  0  0  0  0
   -0.8001    1.1593   -0.0370 C   0  0  0  0  0  0
    1.4667    0.0423    0.0037 C   0  0  0  0  0  0
    2.1727    1.1105   -0.5781 C   0  0  0  0  0  0
    3.5720    1.0565   -0.5557 C   0  0  0  0  0  0
    4.2514    0.0167   -0.0015 N   0  0  0  0  0  0
    3.4882   -0.9714    0.5272 C   0  0  0  0  0  0
    2.1323   -1.0151    0.5563 N   0  0  0  0  0  0
    4.4173    2.1701   -1.1579 C   0  0  0  0  0  0
    5.1719    2.9964   -0.0990 C   0  0  0  0  0  0
    6.0065    4.1297   -0.7105 C   0  0  0  0  0  0
    4.1913   -2.0953    1.1207 C   0  0  0  0  0  0
    4.7514   -2.9908    1.5938 N   0  0  0  0  0  0
   -3.0238    2.2407   -0.0752 O   0  0  0  0  0  0
   -2.4662    3.5488   -0.2014 C   0  0  0  0  0  0
   -3.4814    4.4092   -0.2541 F   0  0  0  0  0  0
   -1.7200    3.8713    0.8568 F   0  0  0  0  0  0
   -1.7684    3.6806   -1.3311 F   0  0  0  0  0  0
   -3.9231   -0.1557    0.1180 H   0  0  0  0  0  0
   -2.6119   -2.2358    0.2516 H   0  0  0  0  0  0
   -0.1697   -2.1680    0.1992 H   0  0  0  0  0  0
   -0.2927    2.1080   -0.1010 H   0  0  0  0  0  0
    1.6667    1.9464   -1.0378 H   0  0  0  0  0  0
    5.1232    1.7283   -1.8632 H   0  0  0  0  0  0
    3.7799    2.8288   -1.7502 H   0  0  0  0  0  0
    4.4598    3.4216    0.6098 H   0  0  0  0  0  0
    5.8289    2.3458    0.4801 H   0  0  0  0  0  0
    6.5299    4.6892    0.0652 H   0  0  0  0  0  0
    5.3786    4.8328   -1.2584 H   0  0  0  0  0  0
    6.7563    3.7410   -1.4005 H   0  0  0  0  0  0
  1  6  2  0  0  0
  1  2  1  0  0  0
  1 18  1  0  0  0
  2  3  2  0  0  0
  2 23  1  0  0  0
  3  4  1  0  0  0
  3 24  1  0  0  0
  4  5  2  0  0  0
  4 25  1  0  0  0
  5  6  1  0  0  0
  5  7  1  0  0  0
  6 26  1  0  0  0
  7 12  1  0  0  0
  7  8  2  0  0  0
  8  9  1  0  0  0
  8 27  1  0  0  0
  9 13  1  0  0  0
  9 10  2  0  0  0
 10 11  1  0  0  0
 11 12  2  0  0  0
 11 16  1  0  0  0
 13 14  1  0  0  0
 13 28  1  0  0  0
 13 29  1  0  0  0
 14 15  1  0  0  0
 14 30  1  0  0  0
 14 31  1  0  0  0
 15 32  1  0  0  0
 15 33  1  0  0  0
 15 34  1  0  0  0
 16 17  3  0  0  0
 18 19  1  0  0  0
 19 20  1  0  0  0
 19 21  1  0  0  0
 19 22  1  0  0  0
M  END
> <chembl_id>
CHEMBL1209312

> <chembl_pref_name>
None

> <s_m_source_file>
sdf/inactives_sanitized.sdf

> <i_m_source_file_index>
364

> <i_lp_mmshare_version>
49012

> <i_m_ct_stereo_status>
1

> <i_f3d_flags>
0

> <s_epik_input>
RkMoRikoRilPYzFbY0hdW2NIXVtjSF1jKFtjSF0xKS1jMltjSF1jKG5jKG4yKUMjTilbQ0gyXVtDSDJdW0NIM10=

> <s_epik_cmdline>
J2VwaWtfcHl0aG9uJywgJy1waHQnLCAnMC41JywgJy1waCcsICc3LjUnLCAnLW50JywgJy1tYScsICcyMDAnLCAnLWltYWUnLCAnPGluZmlsZS5tYWU+JywgJy1vbWFlJywgJzxvdXRmaWxlLm1hZT4n

> <r_lp_tautomer_probability>
1

> <r_epik_Ionization_Penalty>
  0.0000

> <r_epik_Ionization_Penalty_Charging>
  0.0000

> <r_epik_Ionization_Penalty_Neutral>
  0.0000

> <r_epik_State_Penalty>
 -0.0000

> <r_epik_Charging_Adjusted_Penalty>
0

> <i_epik_Tot_Q>
0

> <i_epik_Tot_abs_Q>
0

> <s_lp_Force_Field>
OPLS3e

> <r_lp_Energy>
26.573071

> <b_lp_Chiralities_Consistent>
1

> <s_lp_Variant>
sdf/inactives_sanitized.sdf:364-1

$$$$
sdf/inactives_sanitized.sdf:365
                    3D
 Schrodinger Suite 2020-1.
 52 54  0  0  1  0            999 V2000
   -2.3816   -6.9681    0.1311 C   0  0  0  0  0  0
   -1.0757   -7.4837    0.1629 C   0  0  0  0  0  0
    0.0036   -6.5883    0.1724 C   0  0  0  0  0  0
   -0.2105   -5.2135    0.1421 C   0  0  0  0  0  0
   -1.5047   -4.6716    0.1024 C   0  0  0  0  0  0
   -2.5772   -5.5802    0.1019 C   0  0  0  0  0  0
   -1.7316   -3.1827    0.0578 C   0  0  0  0  0  0
   -0.6221   -2.3821    0.0889 N   0  0  0  0  0  0
   -3.2533   -1.4114   -0.0750 C   0  0  0  0  0  0
   -3.0259   -2.7501   -0.0196 N   0  0  0  0  0  0
   -4.6487   -1.0082   -0.1578 C   0  0  0  0  0  0
   -5.7586   -0.6870   -0.2238 N   0  0  0  0  0  0
   -3.5863   -7.9165    0.1237 C   0  0  0  0  0  0
   -3.5287   -8.7068   -0.9490 F   0  0  0  0  0  0
   -3.5664   -8.6797    1.2172 F   0  0  0  0  0  0
   -4.7547   -7.2721    0.0954 F   0  0  0  0  0  0
   -0.9242   -8.8595    0.1869 O   0  0  0  0  0  0
   -0.0233    0.0038    0.0311 N   0  0  0  0  0  0
   -0.8291    1.1217   -0.0501 C   0  0  0  0  0  0
   -2.1136    0.8661   -0.1018 N   0  0  0  0  0  0
   -2.1813   -0.5026   -0.0548 C   0  0  0  0  0  0
   -0.8894   -1.0722    0.0292 C   0  0  0  0  0  0
    0.3790   -9.4305    0.1144 C   0  0  0  0  0  0
    0.2430  -10.9544    0.0509 C   0  0  0  0  0  0
    1.4342   -0.0163    0.0936 C   0  0  0  0  0  0
    2.0384   -0.6164   -1.1905 C   0  0  0  0  0  0
    3.5766   -0.6423   -1.1532 C   0  0  0  0  0  0
    4.1650   -1.1297   -2.4981 N   0  3  0  0  0  0
    3.8404   -2.6048   -2.8157 C   0  0  0  0  0  0
    5.6861   -0.8858   -2.5598 C   0  0  0  0  0  0
    1.0233   -6.9399    0.2035 H   0  0  0  0  0  0
    0.6576   -4.5709    0.1483 H   0  0  0  0  0  0
   -3.5885   -5.2026    0.0758 H   0  0  0  0  0  0
   -0.3819    2.1052   -0.0682 H   0  0  0  0  0  0
    0.9039   -9.0767   -0.7749 H   0  0  0  0  0  0
    0.9664   -9.1494    0.9902 H   0  0  0  0  0  0
    1.2217  -11.4314   -0.0073 H   0  0  0  0  0  0
   -0.3297  -11.2610   -0.8250 H   0  0  0  0  0  0
   -0.2645  -11.3409    0.9351 H   0  0  0  0  0  0
    1.7967    1.0015    0.2499 H   0  0  0  0  0  0
    1.7306   -0.5898    0.9733 H   0  0  0  0  0  0
    1.6586   -1.6294   -1.3203 H   0  0  0  0  0  0
    1.7060   -0.0434   -2.0577 H   0  0  0  0  0  0
    3.9724    0.3651   -1.0126 H   0  0  0  0  0  0
    3.9768   -1.3002   -0.3795 H   0  0  0  0  0  0
    4.2177   -3.2147   -1.9931 H   0  0  0  0  0  0
    4.3346   -2.8530   -3.7562 H   0  0  0  0  0  0
    2.7606   -2.6969   -2.9253 H   0  0  0  0  0  0
    6.1532   -1.4880   -1.7787 H   0  0  0  0  0  0
    5.8533    0.1804   -2.4007 H   0  0  0  0  0  0
    6.0242   -1.1834   -3.5535 H   0  0  0  0  0  0
    3.7506   -0.5651   -3.2270 H   0  0  0  0  0  0
  1  6  2  0  0  0
  1 13  1  0  0  0
  1  2  1  0  0  0
  2 17  1  0  0  0
  2  3  2  0  0  0
  3  4  1  0  0  0
  3 31  1  0  0  0
  4  5  2  0  0  0
  4 32  1  0  0  0
  5  7  1  0  0  0
  5  6  1  0  0  0
  6 33  1  0  0  0
  7  8  2  0  0  0
  7 10  1  0  0  0
  8 22  1  0  0  0
  9 21  1  0  0  0
  9 10  2  0  0  0
  9 11  1  0  0  0
 11 12  3  0  0  0
 13 14  1  0  0  0
 13 15  1  0  0  0
 13 16  1  0  0  0
 17 23  1  0  0  0
 18 19  1  0  0  0
 18 22  1  0  0  0
 18 25  1  0  0  0
 19 20  2  0  0  0
 19 34  1  0  0  0
 20 21  1  0  0  0
 21 22  2  0  0  0
 23 24  1  0  0  0
 23 35  1  0  0  0
 23 36  1  0  0  0
 24 37  1  0  0  0
 24 38  1  0  0  0
 24 39  1  0  0  0
 25 26  1  0  0  0
 25 40  1  0  0  0
 25 41  1  0  0  0
 26 27  1  0  0  0
 26 42  1  0  0  0
 26 43  1  0  0  0
 27 28  1  0  0  0
 27 44  1  0  0  0
 27 45  1  0  0  0
 28 29  1  0  0  0
 28 30  1  0  0  0
 28 52  1  0  0  0
 29 46  1  0  0  0
 29 47  1  0  0  0
 29 48  1  0  0  0
 30 49  1  0  0  0
 30 50  1  0  0  0
 30 51  1  0  0  0
M  CHG  1  28   1
M  END
> <chembl_id>
CHEMBL1209534

> <chembl_pref_name>
None

> <s_m_source_file>
sdf/inactives_sanitized.sdf

> <i_m_source_file_index>
365

> <i_lp_mmshare_version>
49012

> <i_m_ct_stereo_status>
1

> <i_f3d_flags>
0

> <s_epik_input>
RkMoRikoRiljMWMoT1tDSDJdW0NIM10pW2NIXVtjSF1jKFtjSF0xKS1jKG5jMkMjTiluYyhjMjMpbihbY0hdbjMpW0NIMl1bQ0gyXVtDSDJdTihbQ0gzXSlbQ0gzXQ==

> <s_epik_cmdline>
J2VwaWtfcHl0aG9uJywgJy1waHQnLCAnMC41JywgJy1waCcsICc3LjUnLCAnLW50JywgJy1tYScsICcyMDAnLCAnLWltYWUnLCAnPGluZmlsZS5tYWU+JywgJy1vbWFlJywgJzxvdXRmaWxlLm1hZT4n

> <r_lp_tautomer_probability>
1

> <r_epik_Ionization_Penalty>
  0.0113

> <r_epik_Ionization_Penalty_Charging>
  0.0113

> <r_epik_Ionization_Penalty_Neutral>
  0.0000

> <r_epik_State_Penalty>
  0.0087

> <r_epik_Charging_Adjusted_Penalty>
0.0200198524184697

> <i_epik_Tot_Q>
1

> <i_epik_Tot_abs_Q>
1

> <s_lp_Force_Field>
OPLS3e

> <r_lp_Energy>
45.9228

> <b_lp_Chiralities_Consistent>
1

> <s_lp_Variant>
sdf/inactives_sanitized.sdf:365-1

$$$$
sdf/inactives_sanitized.sdf:366
                    3D
 Schrodinger Suite 2020-1.
 64 68  0  0  1  0            999 V2000
   -3.1501    2.3210    0.1079 N   0  0  0  0  0  0
   -4.4546    1.9348    0.0936 C   0  0  0  0  0  0
   -4.9536    0.6755    0.1921 N   0  0  0  0  0  0
   -4.0480   -0.3282    0.3232 C   0  0  0  0  0  0
   -2.2909    1.2968    0.2349 C   0  0  0  0  0  0
   -2.6681   -0.0665    0.3521 C   0  0  0  0  0  0
   -1.4649   -0.8190    0.4779 C   0  0  0  0  0  0
   -0.3988    0.0692    0.4249 C   0  0  0  0  0  0
   -0.9046    1.3570    0.2764 N   0  0  0  0  0  0
    1.0970   -0.2109    0.5426 C   0  0  0  0  0  0
    1.4161   -1.5508    0.1607 O   0  0  0  0  0  0
   -5.4327    3.0004   -0.0464 C   0  0  0  0  0  0
   -6.2115    3.8495   -0.1582 N   0  0  0  0  0  0
   -0.1165    2.5902    0.2087 C   0  0  0  0  0  0
    0.2626    3.0648    1.6240 C   0  0  0  0  0  0
    1.1110    4.3266    1.5983 C   0  0  0  0  0  0
    1.2965   -1.9444   -1.1606 C   0  0  0  0  0  0
    1.0135   -1.0759   -2.2228 C   0  0  0  0  0  0
    0.9005   -1.5657   -3.5204 C   0  0  0  0  0  0
    1.0586   -2.9337   -3.8013 C   0  0  0  0  0  0
    1.3691   -3.7853   -2.7284 C   0  0  0  0  0  0
    1.4827   -3.2977   -1.4297 C   0  0  0  0  0  0
    0.9562   -3.4299   -5.1082 N   0  0  0  0  0  0
    0.3888   -4.7711   -5.3604 C   0  0  0  0  0  0
    0.6764   -5.3915   -6.7459 C   0  0  0  0  0  0
    0.3578   -4.4041   -7.7817 N   0  0  0  0  0  0
    1.0706   -3.1293   -7.6582 C   0  0  0  0  0  0
    0.7881   -2.5262   -6.2642 C   0  0  0  0  0  0
   -0.6468   -4.5629   -8.6842 C   0  0  0  0  0  0
   -1.3195   -5.9318   -8.8306 C   0  0  0  0  0  0
   -0.9956   -3.6745   -9.4637 O   0  0  0  0  0  0
    2.5036    4.2283    1.5394 C   0  0  0  0  0  0
    3.2811    5.3830    1.5112 C   0  0  0  0  0  0
    2.6642    6.6328    1.5404 C   0  0  0  0  0  0
    1.2749    6.7361    1.5968 C   0  0  0  0  0  0
    0.4970    5.5815    1.6251 C   0  0  0  0  0  0
    3.6282    8.0641    1.5058 Cl  0  0  0  0  0  0
   -4.4351   -1.3330    0.4059 H   0  0  0  0  0  0
   -1.3695   -1.8888    0.5943 H   0  0  0  0  0  0
    1.7449    0.4813    0.0049 H   0  0  0  0  0  0
    1.3897   -0.1072    1.5874 H   0  0  0  0  0  0
    0.7639    2.4122   -0.4085 H   0  0  0  0  0  0
   -0.7079    3.3517   -0.3020 H   0  0  0  0  0  0
   -0.6365    3.2539    2.2137 H   0  0  0  0  0  0
    0.8080    2.2865    2.1608 H   0  0  0  0  0  0
    0.8735   -0.0180   -2.0618 H   0  0  0  0  0  0
    0.6668   -0.8542   -4.2974 H   0  0  0  0  0  0
    1.5462   -4.8387   -2.8762 H   0  0  0  0  0  0
    1.7176   -3.9788   -0.6247 H   0  0  0  0  0  0
    0.6769   -5.4955   -4.6023 H   0  0  0  0  0  0
   -0.6925   -4.6362   -5.2965 H   0  0  0  0  0  0
    1.7355   -5.6427   -6.8138 H   0  0  0  0  0  0
    0.1309   -6.3285   -6.8495 H   0  0  0  0  0  0
    2.1398   -3.3217   -7.7536 H   0  0  0  0  0  0
    0.8147   -2.4131   -8.4404 H   0  0  0  0  0  0
   -0.2615   -2.2269   -6.2528 H   0  0  0  0  0  0
    1.4148   -1.6414   -6.1502 H   0  0  0  0  0  0
   -1.9128   -6.1637   -7.9457 H   0  0  0  0  0  0
   -0.5773   -6.7170   -8.9769 H   0  0  0  0  0  0
   -1.9872   -5.9422   -9.6928 H   0  0  0  0  0  0
    2.9837    3.2606    1.5141 H   0  0  0  0  0  0
    4.3577    5.3067    1.4667 H   0  0  0  0  0  0
    0.8000    7.7062    1.6180 H   0  0  0  0  0  0
   -0.5797    5.6634    1.6658 H   0  0  0  0  0  0
  1  2  2  0  0  0
  1  5  1  0  0  0
  2 12  1  0  0  0
  2  3  1  0  0  0
  3  4  2  0  0  0
  4  6  1  0  0  0
  4 38  1  0  0  0
  5  9  1  0  0  0
  5  6  2  0  0  0
  6  7  1  0  0  0
  7  8  2  0  0  0
  7 39  1  0  0  0
  8  9  1  0  0  0
  8 10  1  0  0  0
  9 14  1  0  0  0
 10 11  1  0  0  0
 10 40  1  0  0  0
 10 41  1  0  0  0
 11 17  1  0  0  0
 12 13  3  0  0  0
 14 15  1  0  0  0
 14 42  1  0  0  0
 14 43  1  0  0  0
 15 16  1  0  0  0
 15 44  1  0  0  0
 15 45  1  0  0  0
 16 32  2  0  0  0
 16 36  1  0  0  0
 17 18  2  0  0  0
 17 22  1  0  0  0
 18 19  1  0  0  0
 18 46  1  0  0  0
 19 20  2  0  0  0
 19 47  1  0  0  0
 20 21  1  0  0  0
 20 23  1  0  0  0
 21 22  2  0  0  0
 21 48  1  0  0  0
 22 49  1  0  0  0
 23 24  1  0  0  0
 23 28  1  0  0  0
 24 25  1  0  0  0
 24 50  1  0  0  0
 24 51  1  0  0  0
 25 26  1  0  0  0
 25 52  1  0  0  0
 25 53  1  0  0  0
 26 27  1  0  0  0
 26 29  1  0  0  0
 27 28  1  0  0  0
 27 54  1  0  0  0
 27 55  1  0  0  0
 28 56  1  0  0  0
 28 57  1  0  0  0
 29 30  1  0  0  0
 29 31  2  0  0  0
 30 58  1  0  0  0
 30 59  1  0  0  0
 30 60  1  0  0  0
 32 33  1  0  0  0
 32 61  1  0  0  0
 33 34  2  0  0  0
 33 62  1  0  0  0
 34 35  1  0  0  0
 34 37  1  0  0  0
 35 36  2  0  0  0
 35 63  1  0  0  0
 36 64  1  0  0  0
M  END
> <chembl_id>
CHEMBL462489

> <chembl_pref_name>
None

> <s_m_source_file>
sdf/inactives_sanitized.sdf

> <i_m_source_file_index>
366

> <i_lp_mmshare_version>
49012

> <i_m_ct_stereo_status>
1

> <i_f3d_flags>
0

> <s_epik_input>
W2NIXTFbY0hdYyhDbClbY0hdW2NIXWMxW0NIMl1bQ0gyXW4yYyhbY0hdYyhjMjMpW2NIXW5jKG4zKUMjTilbQ0gyXU9jNFtjSF1bY0hdYyhbY0hdW2NIXTQpTjVbQ0gyXVtDSDJdTihbQ0gyXVtDSDJdNSlDKD1PKVtDSDNd

> <s_epik_cmdline>
J2VwaWtfcHl0aG9uJywgJy1waHQnLCAnMC41JywgJy1waCcsICc3LjUnLCAnLW50JywgJy1tYScsICcyMDAnLCAnLWltYWUnLCAnPGluZmlsZS5tYWU+JywgJy1vbWFlJywgJzxvdXRmaWxlLm1hZT4n

> <r_lp_tautomer_probability>
1

> <r_epik_Ionization_Penalty>
  0.0029

> <r_epik_Ionization_Penalty_Charging>
  0.0000

> <r_epik_Ionization_Penalty_Neutral>
  0.0029

> <r_epik_State_Penalty>
 -0.0000

> <r_epik_Charging_Adjusted_Penalty>
0

> <i_epik_Tot_Q>
0

> <i_epik_Tot_abs_Q>
0

> <s_lp_Force_Field>
OPLS3e

> <r_lp_Energy>
64.320369

> <b_lp_Chiralities_Consistent>
1

> <s_lp_Variant>
sdf/inactives_sanitized.sdf:366-1

$$$$
sdf/inactives_sanitized.sdf:367
                    3D
 Schrodinger Suite 2020-1.
 77 79  0  0  1  0            999 V2000
    2.2310   -0.1468    3.0823 C   0  0  0  0  0  0
    2.4975   -0.3182    1.7277 N   0  0  0  0  0  0
    0.5091    0.6042    0.4961 C   0  0  0  0  0  0
    2.0399    0.6591    0.7248 C   0  0  2  0  0  0
   -0.0937    0.9998  -10.6767 N   0  3  0  0  0  0
    1.6493    0.8115    3.5982 O   0  0  0  0  0  0
   -0.0736   -0.4811    0.4545 O   0  0  0  0  0  0
    2.7122   -1.2087    3.7564 O   0  0  0  0  0  0
    2.8248    0.3827   -0.5900 C   0  0  0  0  0  0
   -0.0918    1.7894    0.2997 N   0  0  0  0  0  0
   -1.1113    2.2805   -3.8802 C   0  0  0  0  0  0
   -1.0533    2.4783   -2.4906 N   0  0  0  0  0  0
   -1.1462    2.0007   -6.6716 C   0  0  0  0  0  0
    2.5554   -1.3091    5.1691 C   0  0  0  0  0  0
   -1.7353    1.1737   -4.4696 C   0  0  0  0  0  0
   -0.5046    3.2384   -4.6933 C   0  0  0  0  0  0
   -0.5226    3.0980   -6.0779 C   0  0  0  0  0  0
   -1.7541    1.0351   -5.8549 C   0  0  0  0  0  0
   -1.1171    1.9484   -8.0519 O   0  0  0  0  0  0
    3.2064   -2.5763    5.7111 C   0  0  0  0  0  0
   -1.5811    0.9885  -10.2528 C   0  0  0  0  0  0
   -1.7372    0.8565   -8.7264 C   0  0  0  0  0  0
    0.6819    2.2967  -10.3514 C   0  0  0  0  0  0
    0.0898    0.8143  -12.1919 C   0  0  0  0  0  0
    2.6054    1.3905   -1.7482 C   0  0  0  0  0  0
   -1.4939    1.9542   -0.0776 C   0  0  0  0  0  0
   -1.7719    1.6162   -1.5559 C   0  0  0  0  0  0
    3.7493   -2.5581    6.9986 C   0  0  0  0  0  0
    3.2486   -3.7535    4.9539 C   0  0  0  0  0  0
    3.3294    0.9291   -3.0311 C   0  0  0  0  0  0
    2.9714    2.8387   -1.3579 C   0  0  0  0  0  0
    1.5188    1.2846  -12.4265 C   0  0  0  0  0  0
    1.6828    2.4855  -11.5004 C   0  0  0  0  0  0
    4.3417   -3.7041    7.5233 C   0  0  0  0  0  0
    3.8430   -4.8986    5.4784 C   0  0  0  0  0  0
    4.3873   -4.8687    6.7603 C   0  0  0  0  0  0
    2.8895   -1.1915    1.4075 H   0  0  0  0  0  0
    2.3240    1.6507    1.0850 H   0  0  0  0  0  0
    3.8940    0.3602   -0.3694 H   0  0  0  0  0  0
    2.5758   -0.6188   -0.9484 H   0  0  0  0  0  0
    0.4621    2.6316    0.3584 H   0  0  0  0  0  0
   -0.8071    3.4030   -2.1681 H   0  0  0  0  0  0
    3.0127   -0.4380    5.6423 H   0  0  0  0  0  0
    1.4965   -1.3145    5.4321 H   0  0  0  0  0  0
   -2.2126    0.4129   -3.8705 H   0  0  0  0  0  0
   -0.0137    4.0968   -4.2569 H   0  0  0  0  0  0
   -0.0492    3.8483   -6.6944 H   0  0  0  0  0  0
   -2.2465    0.1714   -6.2750 H   0  0  0  0  0  0
   -2.0314    1.8984  -10.6531 H   0  0  0  0  0  0
   -2.0155    0.1258  -10.7603 H   0  0  0  0  0  0
   -2.8000    0.8250   -8.4805 H   0  0  0  0  0  0
   -1.2957   -0.0869   -8.3993 H   0  0  0  0  0  0
   -0.0361    3.1180  -10.3192 H   0  0  0  0  0  0
    1.1510    2.1459   -9.3782 H   0  0  0  0  0  0
   -0.1092   -0.2296  -12.4381 H   0  0  0  0  0  0
   -0.6531    1.4485  -12.6802 H   0  0  0  0  0  0
    1.5437    1.3828   -1.9942 H   0  0  0  0  0  0
   -2.1406    1.3657    0.5761 H   0  0  0  0  0  0
   -1.7516    2.9976    0.1075 H   0  0  0  0  0  0
   -2.8380    1.7273   -1.7573 H   0  0  0  0  0  0
   -1.5490    0.5672   -1.7555 H   0  0  0  0  0  0
    3.7142   -1.6570    7.5940 H   0  0  0  0  0  0
    2.8219   -3.7871    3.9618 H   0  0  0  0  0  0
    4.1418    1.5959   -3.3201 H   0  0  0  0  0  0
    2.6342    0.8818   -3.8702 H   0  0  0  0  0  0
    3.7648   -0.0645   -2.9203 H   0  0  0  0  0  0
    3.5288    3.3572   -2.1379 H   0  0  0  0  0  0
    3.5794    2.8776   -0.4539 H   0  0  0  0  0  0
    2.0705    3.4244   -1.1722 H   0  0  0  0  0  0
    2.2210    0.4929  -12.1607 H   0  0  0  0  0  0
    1.6966    1.5473  -13.4701 H   0  0  0  0  0  0
    1.4589    3.4104  -12.0344 H   0  0  0  0  0  0
    2.7064    2.5670  -11.1323 H   0  0  0  0  0  0
    4.7632   -3.6900    8.5177 H   0  0  0  0  0  0
    3.8800   -5.8068    4.8946 H   0  0  0  0  0  0
    4.8469   -5.7573    7.1675 H   0  0  0  0  0  0
    0.3686    0.2221  -10.2267 H   0  0  0  0  0  0
  1  2  1  0  0  0
  1  6  2  0  0  0
  1  8  1  0  0  0
  2  4  1  0  0  0
  2 37  1  0  0  0
  3  4  1  0  0  0
  3  7  2  0  0  0
  3 10  1  0  0  0
  4  9  1  0  0  0
  4 38  1  0  0  0
  5 21  1  0  0  0
  5 23  1  0  0  0
  5 24  1  0  0  0
  5 77  1  0  0  0
  8 14  1  0  0  0
  9 25  1  0  0  0
  9 39  1  0  0  0
  9 40  1  0  0  0
 10 26  1  0  0  0
 10 41  1  0  0  0
 11 12  1  0  0  0
 11 15  2  0  0  0
 11 16  1  0  0  0
 12 27  1  0  0  0
 12 42  1  0  0  0
 13 17  1  0  0  0
 13 19  1  0  0  0
 13 18  2  0  0  0
 14 20  1  0  0  0
 14 43  1  0  0  0
 14 44  1  0  0  0
 15 18  1  0  0  0
 15 45  1  0  0  0
 16 17  2  0  0  0
 16 46  1  0  0  0
 17 47  1  0  0  0
 18 48  1  0  0  0
 19 22  1  0  0  0
 20 28  2  0  0  0
 20 29  1  0  0  0
 21 22  1  0  0  0
 21 49  1  0  0  0
 21 50  1  0  0  0
 22 51  1  0  0  0
 22 52  1  0  0  0
 23 33  1  0  0  0
 23 53  1  0  0  0
 23 54  1  0  0  0
 24 32  1  0  0  0
 24 55  1  0  0  0
 24 56  1  0  0  0
 25 30  1  0  0  0
 25 31  1  0  0  0
 25 57  1  0  0  0
 26 27  1  0  0  0
 26 58  1  0  0  0
 26 59  1  0  0  0
 27 60  1  0  0  0
 27 61  1  0  0  0
 28 34  1  0  0  0
 28 62  1  0  0  0
 29 35  2  0  0  0
 29 63  1  0  0  0
 30 64  1  0  0  0
 30 65  1  0  0  0
 30 66  1  0  0  0
 31 67  1  0  0  0
 31 68  1  0  0  0
 31 69  1  0  0  0
 32 33  1  0  0  0
 32 70  1  0  0  0
 32 71  1  0  0  0
 33 72  1  0  0  0
 33 73  1  0  0  0
 34 36  2  0  0  0
 34 74  1  0  0  0
 35 36  1  0  0  0
 35 75  1  0  0  0
 36 76  1  0  0  0
M  CHG  1   5   1
M  END
> <chembl_id>
CHEMBL63942

> <chembl_pref_name>
None

> <i_m_ct_stereo_status>
1

> <s_m_source_file>
sdf/inactives_sanitized.sdf

> <i_m_source_file_index>
367

> <i_lp_mmshare_version>
49012

> <i_f3d_flags>
0

> <s_epik_input>
W2NIXTFbY0hdW2NIXVtjSF1bY0hdYzFbQ0gyXU9DKD1PKVtOSF1bQ0BASF0oW0NIMl1bQ0hdKFtDSDNdKVtDSDNdKUMoPU8pW05IXVtDSDJdW0NIMl1bTkhdYzJbY0hdW2NIXWMoW2NIXVtjSF0yKU9bQ0gyXVtDSDJdTjNbQ0gyXVtDSDJdW0NIMl1bQ0gyXTM=

> <s_epik_cmdline>
J2VwaWtfcHl0aG9uJywgJy1waHQnLCAnMC41JywgJy1waCcsICc3LjUnLCAnLW50JywgJy1tYScsICcyMDAnLCAnLWltYWUnLCAnPGluZmlsZS5tYWU+JywgJy1vbWFlJywgJzxvdXRmaWxlLm1hZT4n

> <r_epik_Ionization_Penalty>
  0.0283

> <r_epik_Ionization_Penalty_Charging>
  0.0258

> <r_epik_Ionization_Penalty_Neutral>
  0.0025

> <r_epik_State_Penalty>
  0.0210

> <r_epik_Charging_Adjusted_Penalty>
0.0468688279753505

> <i_epik_Tot_Q>
1

> <i_epik_Tot_abs_Q>
1

> <s_epik_Chemistry_Notes>
This compound has an ester and may undergo hydrolysis at high or low pH.

> <s_lp_Force_Field>
OPLS3e

> <r_lp_Energy>
41.527346

> <b_lp_Chiralities_Consistent>
1

> <s_lp_Variant>
sdf/inactives_sanitized.sdf:367-1

$$$$
sdf/inactives_sanitized.sdf:368
                    3D
 Schrodinger Suite 2020-1.
 32 34  0  0  1  0            999 V2000
   -0.6701    1.1885   -0.0360 N   0  0  0  0  0  0
   -0.0549   -0.0278    0.0073 C   0  0  0  0  0  0
   -0.7626   -1.2414    0.0461 C   0  0  0  0  0  0
   -2.0245    1.2656   -0.0536 C   0  0  0  0  0  0
   -3.1801   -2.0618    0.0467 N   0  0  0  0  0  0
   -4.3553   -1.3507    0.0068 C   0  0  0  0  0  0
   -4.1869   -0.0539   -0.0372 N   0  0  0  0  0  0
   -2.8226    0.1097   -0.0260 C   0  0  0  0  0  0
   -2.1572   -1.1419    0.0255 C   0  0  0  0  0  0
   -2.5714    2.6134   -0.0993 C   0  0  0  0  0  0
   -3.0069    3.6850   -0.1353 N   0  0  0  0  0  0
    1.4403    0.0024    0.0232 C   0  0  0  0  0  0
    2.1852   -1.0067   -0.6010 C   0  0  0  0  0  0
    3.5873   -0.9985   -0.6025 C   0  0  0  0  0  0
    4.2756    0.0478    0.0359 C   0  0  0  0  0  0
    3.5345    1.0612    0.6641 C   0  0  0  0  0  0
    2.1426    1.0356    0.6565 C   0  0  0  0  0  0
    4.3619   -2.1237   -1.2984 C   0  0  0  0  0  0
    5.1266   -1.6138   -2.2646 F   0  0  0  0  0  0
    5.1464   -2.7433   -0.4157 F   0  0  0  0  0  0
    3.5621   -3.0397   -1.8487 F   0  0  0  0  0  0
    5.6595    0.0222    0.0101 O   0  0  0  0  0  0
    6.3952    1.0746    0.6249 C   0  0  0  0  0  0
   -0.2628   -2.1977    0.0949 H   0  0  0  0  0  0
   -3.1335   -3.0700    0.0835 H   0  0  0  0  0  0
   -5.3003   -1.8745    0.0142 H   0  0  0  0  0  0
    1.6614   -1.8061   -1.1039 H   0  0  0  0  0  0
    4.0211    1.8827    1.1672 H   0  0  0  0  0  0
    1.6097    1.8320    1.1555 H   0  0  0  0  0  0
    7.4616    0.8909    0.4947 H   0  0  0  0  0  0
    6.1986    1.1273    1.6968 H   0  0  0  0  0  0
    6.1694    2.0401    0.1695 H   0  0  0  0  0  0
  1  2  2  0  0  0
  1  4  1  0  0  0
  2  3  1  0  0  0
  2 12  1  0  0  0
  3  9  2  0  0  0
  3 24  1  0  0  0
  4  8  2  0  0  0
  4 10  1  0  0  0
  5  6  1  0  0  0
  5  9  1  0  0  0
  5 25  1  0  0  0
  6  7  2  0  0  0
  6 26  1  0  0  0
  7  8  1  0  0  0
  8  9  1  0  0  0
 10 11  3  0  0  0
 12 13  2  0  0  0
 12 17  1  0  0  0
 13 14  1  0  0  0
 13 27  1  0  0  0
 14 15  2  0  0  0
 14 18  1  0  0  0
 15 16  1  0  0  0
 15 22  1  0  0  0
 16 17  2  0  0  0
 16 28  1  0  0  0
 17 29  1  0  0  0
 18 19  1  0  0  0
 18 20  1  0  0  0
 18 21  1  0  0  0
 22 23  1  0  0  0
 23 30  1  0  0  0
 23 31  1  0  0  0
 23 32  1  0  0  0
M  END
> <chembl_id>
CHEMBL1209855

> <chembl_pref_name>
None

> <s_m_source_file>
sdf/inactives_sanitized.sdf

> <i_m_source_file_index>
368

> <i_lp_mmshare_version>
49012

> <i_m_ct_stereo_status>
1

> <i_f3d_flags>
0

> <s_epik_input>
bjFbY0hdW25IXWMoYzEyKVtjSF1jKG5jMkMjTiktYzNbY0hdYyhDKEYpKEYpRiljKFtjSF1bY0hdMylPW0NIM10=

> <s_epik_cmdline>
J2VwaWtfcHl0aG9uJywgJy1waHQnLCAnMC41JywgJy1waCcsICc3LjUnLCAnLW50JywgJy1tYScsICcyMDAnLCAnLWltYWUnLCAnPGluZmlsZS5tYWU+JywgJy1vbWFlJywgJzxvdXRmaWxlLm1hZT4n

> <r_lp_tautomer_probability>
1

> <r_epik_Ionization_Penalty>
  0.0350

> <r_epik_Ionization_Penalty_Charging>
  0.0000

> <r_epik_Ionization_Penalty_Neutral>
  0.0350

> <r_epik_State_Penalty>
 -0.0000

> <r_epik_Charging_Adjusted_Penalty>
1.09957420349954e-07

> <i_epik_Tot_Q>
0

> <i_epik_Tot_abs_Q>
0

> <s_lp_Force_Field>
OPLS3e

> <r_lp_Energy>
28.228419

> <b_lp_Chiralities_Consistent>
1

> <s_lp_Variant>
sdf/inactives_sanitized.sdf:368-1

$$$$
sdf/inactives_sanitized.sdf:369
                    3D
 Schrodinger Suite 2020-1.
 73 75  0  0  1  0            999 V2000
    1.9713    1.2918    0.1781 N   0  0  2  0  0  0
    2.2223    3.0613   -1.6452 C   0  0  0  0  0  0
    0.0503   -0.3522    0.3954 C   0  0  0  0  0  0
    1.8618    3.3947   -3.0691 C   0  0  0  0  0  0
   -0.4619   -1.3614   -0.3346 N   0  0  0  0  0  0
    1.3416    1.9961   -0.9530 C   0  0  0  0  0  0
    1.5916   -0.1414    0.2915 C   0  0  2  0  0  0
   -2.2842   -2.6523    0.8152 C   0  0  0  0  0  0
   -1.8752   -1.7710   -0.3725 C   0  0  2  0  0  0
   -1.4657   -3.2283    1.7219 C   0  0  0  0  0  0
    0.5261    3.7067   -3.4182 C   0  0  0  0  0  0
    2.8810    3.4565   -4.0494 C   0  0  0  0  0  0
   -0.6465    0.3659    1.1158 O   0  0  0  0  0  0
    3.2591    3.4590   -1.1079 O   0  0  0  0  0  0
   -2.2568   -2.3606   -1.7694 C   0  0  2  0  0  0
   -1.8680   -4.0596    2.8764 C   0  0  0  0  0  0
    1.9382    2.0660    1.4318 C   0  0  0  0  0  0
    4.1835    3.1511   -3.6808 O   0  0  0  0  0  0
   -0.4460    3.6979   -2.4297 O   0  0  0  0  0  0
    2.2987   -0.8659    1.4727 C   0  0  0  0  0  0
    1.2259    4.0787   -5.7154 C   0  0  0  0  0  0
    2.5393    3.7964   -5.3683 C   0  0  0  0  0  0
    0.2295    4.0364   -4.7508 C   0  0  0  0  0  0
   -1.8917   -1.3978   -2.9381 C   0  0  0  0  0  0
   -3.7432   -2.7882   -1.8496 C   0  0  0  0  0  0
   -0.8771   -4.7784    3.5542 C   0  0  0  0  0  0
   -3.1992   -4.1552    3.3069 C   0  0  0  0  0  0
    5.2354    3.2257   -4.6372 C   0  0  0  0  0  0
   -1.8056    3.9650   -2.7574 C   0  0  0  0  0  0
    2.7550    1.3812    2.5432 C   0  0  0  0  0  0
   -2.0436   -1.9921   -4.3489 C   0  0  0  0  0  0
    2.3024   -0.0637    2.7862 C   0  0  0  0  0  0
   -3.5295   -4.9547    4.3985 C   0  0  0  0  0  0
   -1.2064   -5.5785    4.6451 C   0  0  0  0  0  0
   -2.5319   -5.6634    5.0627 C   0  0  0  0  0  0
    0.1789   -1.9482   -0.8484 H   0  0  0  0  0  0
    0.4167    2.4567   -0.6059 H   0  0  0  0  0  0
    1.0594    1.2709   -1.7178 H   0  0  0  0  0  0
    1.8860   -0.6375   -0.6363 H   0  0  0  0  0  0
   -3.3484   -2.8024    0.9091 H   0  0  0  0  0  0
   -2.4735   -0.8623   -0.2678 H   0  0  0  0  0  0
   -0.4016   -3.0716    1.6200 H   0  0  0  0  0  0
   -1.6629   -3.2667   -1.9035 H   0  0  0  0  0  0
    2.3609    3.0550    1.2553 H   0  0  0  0  0  0
    0.9087    2.2399    1.7450 H   0  0  0  0  0  0
    1.8567   -1.8478    1.6524 H   0  0  0  0  0  0
    3.3256   -1.0860    1.1768 H   0  0  0  0  0  0
    0.9803    4.3378   -6.7347 H   0  0  0  0  0  0
    3.2833    3.8448   -6.1483 H   0  0  0  0  0  0
   -0.7756    4.2764   -5.0619 H   0  0  0  0  0  0
   -2.4917   -0.4893   -2.8649 H   0  0  0  0  0  0
   -0.8562   -1.0697   -2.8455 H   0  0  0  0  0  0
   -4.4101   -1.9396   -1.6927 H   0  0  0  0  0  0
   -3.9902   -3.5475   -1.1085 H   0  0  0  0  0  0
   -3.9899   -3.2290   -2.8146 H   0  0  0  0  0  0
    0.1549   -4.7206    3.2385 H   0  0  0  0  0  0
   -3.9886   -3.6104    2.8117 H   0  0  0  0  0  0
    6.1781    2.9707   -4.1531 H   0  0  0  0  0  0
    5.3365    4.2330   -5.0438 H   0  0  0  0  0  0
    5.0835    2.5196   -5.4549 H   0  0  0  0  0  0
   -2.4131    3.8877   -1.8559 H   0  0  0  0  0  0
   -2.1927    3.2431   -3.4780 H   0  0  0  0  0  0
   -1.9311    4.9735   -3.1539 H   0  0  0  0  0  0
    3.8189    1.4299    2.3054 H   0  0  0  0  0  0
    2.6429    1.9500    3.4666 H   0  0  0  0  0  0
   -1.6573   -1.3023   -5.0999 H   0  0  0  0  0  0
   -3.0856   -2.1870   -4.6009 H   0  0  0  0  0  0
   -1.4906   -2.9269   -4.4464 H   0  0  0  0  0  0
    2.9491   -0.5445    3.5209 H   0  0  0  0  0  0
    1.2994   -0.0619    3.2152 H   0  0  0  0  0  0
   -4.5555   -5.0235    4.7294 H   0  0  0  0  0  0
   -0.4373   -6.1306    5.1650 H   0  0  0  0  0  0
   -2.7881   -6.2828    5.9096 H   0  0  0  0  0  0
  1  6  1  0  0  0
  1  7  1  0  0  0
  1 17  1  0  0  0
  2  6  1  0  0  0
  2  4  1  0  0  0
  2 14  2  0  0  0
  3  7  1  0  0  0
  3  5  1  0  0  0
  3 13  2  0  0  0
  4 11  2  0  0  0
  4 12  1  0  0  0
  5  9  1  0  0  0
  5 36  1  0  0  0
  6 37  1  0  0  0
  6 38  1  0  0  0
  7 20  1  0  0  0
  7 39  1  0  0  0
  8  9  1  0  0  0
  8 10  2  0  0  0
  8 40  1  0  0  0
  9 15  1  0  0  0
  9 41  1  0  0  0
 10 16  1  0  0  0
 10 42  1  0  0  0
 11 19  1  0  0  0
 11 23  1  0  0  0
 12 18  1  0  0  0
 12 22  2  0  0  0
 15 24  1  0  0  0
 15 25  1  0  0  0
 15 43  1  0  0  0
 16 26  2  0  0  0
 16 27  1  0  0  0
 17 30  1  0  0  0
 17 44  1  0  0  0
 17 45  1  0  0  0
 18 28  1  0  0  0
 19 29  1  0  0  0
 20 32  1  0  0  0
 20 46  1  0  0  0
 20 47  1  0  0  0
 21 22  1  0  0  0
 21 23  2  0  0  0
 21 48  1  0  0  0
 22 49  1  0  0  0
 23 50  1  0  0  0
 24 31  1  0  0  0
 24 51  1  0  0  0
 24 52  1  0  0  0
 25 53  1  0  0  0
 25 54  1  0  0  0
 25 55  1  0  0  0
 26 34  1  0  0  0
 26 56  1  0  0  0
 27 33  2  0  0  0
 27 57  1  0  0  0
 28 58  1  0  0  0
 28 59  1  0  0  0
 28 60  1  0  0  0
 29 61  1  0  0  0
 29 62  1  0  0  0
 29 63  1  0  0  0
 30 32  1  0  0  0
 30 64  1  0  0  0
 30 65  1  0  0  0
 31 66  1  0  0  0
 31 67  1  0  0  0
 31 68  1  0  0  0
 32 69  1  0  0  0
 32 70  1  0  0  0
 33 35  1  0  0  0
 33 71  1  0  0  0
 34 35  2  0  0  0
 34 72  1  0  0  0
 35 73  1  0  0  0
M  END
> <chembl_id>
CHEMBL327743

> <chembl_pref_name>
None

> <i_m_ct_stereo_status>
1

> <s_m_source_file>
sdf/inactives_sanitized.sdf

> <i_m_source_file_index>
369

> <i_lp_mmshare_version>
49012

> <i_f3d_flags>
0

> <s_epik_input>
W0NIM11PYzFbY0hdW2NIXVtjSF1jKE9bQ0gzXSljMUMoPU8pW0NIMl1OMltDQEBIXShbQ0gyXVtDSDJdW0NIMl1bQ0gyXTIpQyg9TylbTkhdW0NAQEhdKFtDQEBIXShbQ0gzXSlbQ0gyXVtDSDNdKS9bQ0hdPVtDSF0vYzNbY0hdW2NIXVtjSF1bY0hdW2NIXTM=

> <s_epik_cmdline>
J2VwaWtfcHl0aG9uJywgJy1waHQnLCAnMC41JywgJy1waCcsICc3LjUnLCAnLW50JywgJy1tYScsICcyMDAnLCAnLWltYWUnLCAnPGluZmlsZS5tYWU+JywgJy1vbWFlJywgJzxvdXRmaWxlLm1hZT4n

> <r_lp_tautomer_probability>
0.99990000499975

> <r_epik_Ionization_Penalty>
  0.0202

> <r_epik_Ionization_Penalty_Charging>
  0.0000

> <r_epik_Ionization_Penalty_Neutral>
  0.0202

> <r_epik_State_Penalty>
  0.0162

> <r_epik_Charging_Adjusted_Penalty>
0.0161663335032028

> <i_epik_Tot_Q>
0

> <i_epik_Tot_abs_Q>
0

> <s_lp_Force_Field>
OPLS3e

> <r_lp_Energy>
47.879306

> <b_lp_Chiralities_Consistent>
1

> <s_lp_Variant>
sdf/inactives_sanitized.sdf:369-1

$$$$
sdf/inactives_sanitized.sdf:370
                    3D
 Schrodinger Suite 2020-1.
 37 39  0  0  1  0            999 V2000
   -2.0315    5.5295    1.0948 C   0  0  0  0  0  0
   -2.2733    5.5034   -0.2798 C   0  0  0  0  0  0
   -1.9312    4.3945   -1.0557 C   0  0  0  0  0  0
   -1.3343    3.2986   -0.4155 C   0  0  0  0  0  0
   -1.0985    3.3464    0.9828 C   0  0  0  0  0  0
   -1.4389    4.4549    1.7635 C   0  0  0  0  0  0
   -0.9120    2.1086   -0.9486 N   0  0  0  0  0  0
   -0.4251    1.4417    0.0702 C   0  0  0  0  0  0
   -0.5165    2.1313    1.2584 N   0  0  0  0  0  0
    0.1877    0.0496   -0.0273 C   0  0  0  0  0  0
    1.7302    0.0431   -0.0649 C   0  0  0  0  0  0
    2.3832    1.1463   -0.1560 N   0  0  0  0  0  0
    2.3094   -1.3198    0.0324 C   0  0  0  0  0  0
    1.9372   -2.3182   -0.8787 C   0  0  0  0  0  0
    2.4783   -3.5980   -0.7873 C   0  0  0  0  0  0
    3.3948   -3.8895    0.2189 C   0  0  0  0  0  0
    3.7743   -2.9120    1.1341 C   0  0  0  0  0  0
    3.2324   -1.6330    1.0410 C   0  0  0  0  0  0
    3.7307    1.0704   -0.2842 N   0  0  0  0  0  0
    4.5706    2.1441   -0.3555 C   0  0  0  0  0  0
    5.8724    1.8081   -0.4842 N   0  0  0  0  0  0
    4.1499    3.7594   -0.2993 S   0  0  0  0  0  0
   -2.3106    6.4078    1.6584 H   0  0  0  0  0  0
   -2.7335    6.3590   -0.7522 H   0  0  0  0  0  0
   -2.1213    4.3852   -2.1189 H   0  0  0  0  0  0
   -1.2562    4.4876    2.8274 H   0  0  0  0  0  0
   -0.1881    1.7684    2.1416 H   0  0  0  0  0  0
   -0.1581   -0.5605    0.8086 H   0  0  0  0  0  0
   -0.1948   -0.4477   -0.9192 H   0  0  0  0  0  0
    1.2332   -2.1095   -1.6718 H   0  0  0  0  0  0
    2.1891   -4.3608   -1.4952 H   0  0  0  0  0  0
    3.8146   -4.8822    0.2902 H   0  0  0  0  0  0
    4.4842   -3.1453    1.9141 H   0  0  0  0  0  0
    3.5317   -0.8862    1.7632 H   0  0  0  0  0  0
    4.1080    0.1339   -0.3102 H   0  0  0  0  0  0
    6.1412    0.8358   -0.5279 H   0  0  0  0  0  0
    6.5710    2.5351   -0.5442 H   0  0  0  0  0  0
  1  2  2  0  0  0
  1  6  1  0  0  0
  1 23  1  0  0  0
  2  3  1  0  0  0
  2 24  1  0  0  0
  3  4  2  0  0  0
  3 25  1  0  0  0
  4  5  1  0  0  0
  4  7  1  0  0  0
  5  6  2  0  0  0
  5  9  1  0  0  0
  6 26  1  0  0  0
  7  8  2  0  0  0
  8  9  1  0  0  0
  8 10  1  0  0  0
  9 27  1  0  0  0
 10 11  1  0  0  0
 10 28  1  0  0  0
 10 29  1  0  0  0
 11 12  2  0  0  0
 11 13  1  0  0  0
 12 19  1  0  0  0
 13 14  2  0  0  0
 13 18  1  0  0  0
 14 15  1  0  0  0
 14 30  1  0  0  0
 15 16  2  0  0  0
 15 31  1  0  0  0
 16 17  1  0  0  0
 16 32  1  0  0  0
 17 18  2  0  0  0
 17 33  1  0  0  0
 18 34  1  0  0  0
 19 20  1  0  0  0
 19 35  1  0  0  0
 20 21  1  0  0  0
 20 22  2  0  0  0
 21 36  1  0  0  0
 21 37  1  0  0  0
M  END
> <chembl_id>
CHEMBL2316599

> <chembl_pref_name>
None

> <s_m_source_file>
sdf/inactives_sanitized.sdf

> <i_m_source_file_index>
370

> <i_lp_mmshare_version>
49012

> <i_m_ct_stereo_status>
1

> <i_f3d_flags>
0

> <s_epik_input>
W2NIXTFbY0hdW2NIXVtjSF1jKGMxMilbbkhdYyhuMilbQ0gyXS9DKD1OL1tOSF1DKD1TKVtOSDJdKWMzW2NIXVtjSF1bY0hdW2NIXVtjSF0z

> <s_epik_cmdline>
J2VwaWtfcHl0aG9uJywgJy1waHQnLCAnMC41JywgJy1waCcsICc3LjUnLCAnLW50JywgJy1tYScsICcyMDAnLCAnLWltYWUnLCAnPGluZmlsZS5tYWU+JywgJy1vbWFlJywgJzxvdXRmaWxlLm1hZT4n

> <r_lp_tautomer_probability>
1

> <r_epik_Ionization_Penalty>
  0.0028

> <r_epik_Ionization_Penalty_Charging>
  0.0000

> <r_epik_Ionization_Penalty_Neutral>
  0.0028

> <r_epik_State_Penalty>
 -0.0000

> <r_epik_Charging_Adjusted_Penalty>
0

> <i_epik_Tot_Q>
0

> <i_epik_Tot_abs_Q>
0

> <s_epik_Chemistry_Notes>
This compound has an imine and may undergo hydrolysis.

> <s_lp_Force_Field>
OPLS3e

> <r_lp_Energy>
45.921459

> <b_lp_Chiralities_Consistent>
1

> <s_lp_Variant>
sdf/inactives_sanitized.sdf:370-1

$$$$
sdf/inactives_sanitized.sdf:371
                    3D
 Schrodinger Suite 2020-1.
 31 32  0  0  1  0            999 V2000
   -1.3569    0.4830    2.0309 C   0  0  0  0  0  0
   -0.6619   -0.6131    1.2269 C   0  0  0  0  0  0
   -0.0572    0.1101    0.0178 C   0  0  1  0  0  0
   -0.6639    1.5241    0.0846 C   0  0  0  0  0  0
   -1.8178    1.3463    0.9560 N   0  0  2  0  0  0
   -2.5714    2.4188    1.2581 C   0  0  0  0  0  0
   -3.1802    3.3714    1.5063 N   0  0  0  0  0  0
    1.4860    0.0874   -0.0142 C   0  0  0  0  0  0
    2.0930    0.7303   -1.2763 C   0  0  0  0  0  0
    3.6143    0.6979   -1.2702 C   0  0  0  0  0  0
    4.3301    1.7363   -0.6678 C   0  0  0  0  0  0
    5.7220    1.7030   -0.6521 C   0  0  0  0  0  0
    6.3931    0.6318   -1.2384 C   0  0  0  0  0  0
    5.6853   -0.4067   -1.8403 C   0  0  0  0  0  0
    4.2932   -0.3740   -1.8562 C   0  0  0  0  0  0
   -0.6642    1.0386    2.6662 H   0  0  0  0  0  0
   -2.1972    0.1049    2.6145 H   0  0  0  0  0  0
   -1.3928   -1.3519    0.8920 H   0  0  0  0  0  0
    0.0611   -1.1547    1.8384 H   0  0  0  0  0  0
   -0.4248   -0.3823   -0.8849 H   0  0  0  0  0  0
    0.0277    2.2453    0.5245 H   0  0  0  0  0  0
   -0.9539    1.8888   -0.9017 H   0  0  0  0  0  0
    1.8736    0.5899    0.8738 H   0  0  0  0  0  0
    1.8269   -0.9471    0.0532 H   0  0  0  0  0  0
    1.7256    0.2256   -2.1715 H   0  0  0  0  0  0
    1.7633    1.7659   -1.3735 H   0  0  0  0  0  0
    3.8102    2.5653   -0.2097 H   0  0  0  0  0  0
    6.2785    2.5031   -0.1866 H   0  0  0  0  0  0
    7.4728    0.6059   -1.2248 H   0  0  0  0  0  0
    6.2139   -1.2337   -2.2913 H   0  0  0  0  0  0
    3.7451   -1.1813   -2.3201 H   0  0  0  0  0  0
  1  5  1  0  0  0
  1  2  1  0  0  0
  1 16  1  0  0  0
  1 17  1  0  0  0
  2  3  1  0  0  0
  2 18  1  0  0  0
  2 19  1  0  0  0
  3  8  1  0  0  0
  3  4  1  0  0  0
  3 20  1  0  0  0
  4  5  1  0  0  0
  4 21  1  0  0  0
  4 22  1  0  0  0
  5  6  1  0  0  0
  6  7  3  0  0  0
  8  9  1  0  0  0
  8 23  1  0  0  0
  8 24  1  0  0  0
  9 10  1  0  0  0
  9 25  1  0  0  0
  9 26  1  0  0  0
 10 11  2  0  0  0
 10 15  1  0  0  0
 11 12  1  0  0  0
 11 27  1  0  0  0
 12 13  2  0  0  0
 12 28  1  0  0  0
 13 14  1  0  0  0
 13 29  1  0  0  0
 14 15  2  0  0  0
 14 30  1  0  0  0
 15 31  1  0  0  0
M  END
> <chembl_id>
CHEMBL1672419

> <chembl_pref_name>
None

> <s_m_source_file>
sdf/inactives_sanitized.sdf

> <i_m_source_file_index>
371

> <i_lp_mmshare_version>
49012

> <i_m_ct_stereo_status>
1

> <i_f3d_flags>
0

> <s_epik_input>
TiNDTihbQ0gyXTEpW0NIMl1bQ0gyXVtDQEBIXTFbQ0gyXVtDSDJdYzJbY0hdW2NIXVtjSF1bY0hdW2NIXTI=

> <s_epik_cmdline>
J2VwaWtfcHl0aG9uJywgJy1waHQnLCAnMC41JywgJy1waCcsICc3LjUnLCAnLW50JywgJy1tYScsICcyMDAnLCAnLWltYWUnLCAnPGluZmlsZS5tYWU+JywgJy1vbWFlJywgJzxvdXRmaWxlLm1hZT4n

> <r_lp_tautomer_probability>
1

> <r_epik_Ionization_Penalty>
  0.0000

> <r_epik_Ionization_Penalty_Charging>
  0.0000

> <r_epik_Ionization_Penalty_Neutral>
  0.0000

> <r_epik_State_Penalty>
 -0.0000

> <r_epik_Charging_Adjusted_Penalty>
0

> <i_epik_Tot_Q>
0

> <i_epik_Tot_abs_Q>
0

> <s_lp_Force_Field>
OPLS3e

> <r_lp_Energy>
19.35759

> <b_lp_Chiralities_Consistent>
1

> <s_lp_Variant>
sdf/inactives_sanitized.sdf:371-1

$$$$
sdf/inactives_sanitized.sdf:372
                    3D
 Schrodinger Suite 2020-1.
 69 70  0  0  1  0            999 V2000
   -0.6678   -1.2822    0.0253 C   0  0  0  0  0  0
    0.0904    0.1051   -0.1054 C   0  0  0  0  0  0
   -1.9828   -1.1775   -0.2499 N   0  0  0  0  0  0
    2.4957   -1.1649   -1.9029 C   0  0  0  0  0  0
    2.1709    0.0299   -1.2689 N   0  0  0  0  0  0
    1.6077    0.0645    0.0902 C   0  0  1  0  0  0
   -2.9549   -2.2753   -0.1816 C   0  0  1  0  0  0
   -0.5375    1.1483   -0.3152 O   0  0  0  0  0  0
   -0.0844   -2.3130    0.3632 O   0  0  0  0  0  0
    2.4245   -2.2975   -1.4202 O   0  0  0  0  0  0
    2.9026   -0.8880   -3.1552 O   0  0  0  0  0  0
    3.6384   -1.3621   -5.4589 C   0  0  0  0  0  0
   -3.1275   -2.8988    1.2108 C   0  0  0  0  0  0
    3.2665   -1.9302   -4.0561 C   0  0  0  0  0  0
    2.1318    1.2984    0.8766 C   0  0  0  0  0  0
    4.8752   -0.4124   -5.3455 C   0  0  0  0  0  0
    3.9624   -2.5244   -6.4463 C   0  0  0  0  0  0
    2.4414   -0.5963   -6.1027 C   0  0  0  0  0  0
   -4.3114   -1.8194   -0.7440 C   0  0  0  0  0  0
   -3.0733   -2.1098    2.3675 C   0  0  0  0  0  0
   -3.3133   -4.2805    1.3253 C   0  0  0  0  0  0
    1.5451    1.5151    2.2925 C   0  0  0  0  0  0
    1.7282    0.3234    3.2522 C   0  0  0  0  0  0
    5.4472    0.2034   -6.6389 C   0  0  0  0  0  0
    1.1836    0.6034    4.6592 C   0  0  0  0  0  0
    1.1870   -1.4887   -6.2490 C   0  0  0  0  0  0
    2.7748   -3.4999   -6.6290 C   0  0  0  0  0  0
   -3.2097   -2.6968    3.6224 C   0  0  0  0  0  0
   -3.4496   -4.8674    2.5806 C   0  0  0  0  0  0
    1.4969   -2.7542   -7.0845 C   0  0  0  0  0  0
   -3.3972   -4.0729    3.7234 C   0  0  0  0  0  0
   -2.3422   -0.2792   -0.5391 H   0  0  0  0  0  0
    2.2003    0.8899   -1.7970 H   0  0  0  0  0  0
    1.9276   -0.8109    0.6591 H   0  0  0  0  0  0
   -2.5812   -3.0502   -0.8556 H   0  0  0  0  0  0
    2.4432   -2.6410   -4.1154 H   0  0  0  0  0  0
    4.1174   -2.4768   -3.6456 H   0  0  0  0  0  0
    3.2176    1.2255    0.9597 H   0  0  0  0  0  0
    1.9638    2.2053    0.2921 H   0  0  0  0  0  0
    4.6277    0.4108   -4.6737 H   0  0  0  0  0  0
    5.6826   -0.9469   -4.8426 H   0  0  0  0  0  0
    4.2554   -2.1434   -7.4251 H   0  0  0  0  0  0
    4.8226   -3.0872   -6.0805 H   0  0  0  0  0  0
    2.1818    0.2679   -5.4892 H   0  0  0  0  0  0
    2.7075   -0.1902   -7.0791 H   0  0  0  0  0  0
   -5.0159   -2.6504   -0.7981 H   0  0  0  0  0  0
   -4.2081   -1.4168   -1.7526 H   0  0  0  0  0  0
   -4.7613   -1.0433   -0.1231 H   0  0  0  0  0  0
   -2.9263   -1.0419    2.2971 H   0  0  0  0  0  0
   -3.3509   -4.9021    0.4425 H   0  0  0  0  0  0
    2.0199    2.3959    2.7275 H   0  0  0  0  0  0
    0.4861    1.7658    2.2194 H   0  0  0  0  0  0
    1.2225   -0.5574    2.8550 H   0  0  0  0  0  0
    2.7861    0.0660    3.3205 H   0  0  0  0  0  0
    6.2862    0.8588   -6.4040 H   0  0  0  0  0  0
    4.7118    0.8082   -7.1683 H   0  0  0  0  0  0
    5.8242   -0.5549   -7.3242 H   0  0  0  0  0  0
    1.3256   -0.2597    5.3100 H   0  0  0  0  0  0
    0.1159    0.8246    4.6327 H   0  0  0  0  0  0
    1.6909    1.4519    5.1192 H   0  0  0  0  0  0
    0.7985   -1.7701   -5.2699 H   0  0  0  0  0  0
    0.3879   -0.9223   -6.7287 H   0  0  0  0  0  0
    3.0355   -4.2574   -7.3692 H   0  0  0  0  0  0
    2.5806   -4.0509   -5.7091 H   0  0  0  0  0  0
   -3.1689   -2.0876    4.5134 H   0  0  0  0  0  0
   -3.5928   -5.9343    2.6680 H   0  0  0  0  0  0
    0.6429   -3.4323   -7.0628 H   0  0  0  0  0  0
    1.6181   -2.4605   -8.1283 H   0  0  0  0  0  0
   -3.5012   -4.5285    4.6971 H   0  0  0  0  0  0
  1  2  1  0  0  0
  1  3  1  0  0  0
  1  9  2  0  0  0
  2  6  1  0  0  0
  2  8  2  0  0  0
  3  7  1  0  0  0
  3 32  1  0  0  0
  4  5  1  0  0  0
  4 10  2  0  0  0
  4 11  1  0  0  0
  5  6  1  0  0  0
  5 33  1  0  0  0
  6 15  1  0  0  0
  6 34  1  0  0  0
  7 13  1  0  0  0
  7 19  1  0  0  0
  7 35  1  0  0  0
 11 14  1  0  0  0
 12 14  1  0  0  0
 12 16  1  0  0  0
 12 17  1  0  0  0
 12 18  1  0  0  0
 13 20  2  0  0  0
 13 21  1  0  0  0
 14 36  1  0  0  0
 14 37  1  0  0  0
 15 22  1  0  0  0
 15 38  1  0  0  0
 15 39  1  0  0  0
 16 24  1  0  0  0
 16 40  1  0  0  0
 16 41  1  0  0  0
 17 27  1  0  0  0
 17 42  1  0  0  0
 17 43  1  0  0  0
 18 26  1  0  0  0
 18 44  1  0  0  0
 18 45  1  0  0  0
 19 46  1  0  0  0
 19 47  1  0  0  0
 19 48  1  0  0  0
 20 28  1  0  0  0
 20 49  1  0  0  0
 21 29  2  0  0  0
 21 50  1  0  0  0
 22 23  1  0  0  0
 22 51  1  0  0  0
 22 52  1  0  0  0
 23 25  1  0  0  0
 23 53  1  0  0  0
 23 54  1  0  0  0
 24 55  1  0  0  0
 24 56  1  0  0  0
 24 57  1  0  0  0
 25 58  1  0  0  0
 25 59  1  0  0  0
 25 60  1  0  0  0
 26 30  1  0  0  0
 26 61  1  0  0  0
 26 62  1  0  0  0
 27 30  1  0  0  0
 27 63  1  0  0  0
 27 64  1  0  0  0
 28 31  2  0  0  0
 28 65  1  0  0  0
 29 31  1  0  0  0
 29 66  1  0  0  0
 30 67  1  0  0  0
 30 68  1  0  0  0
 31 69  1  0  0  0
M  END
> <chembl_id>
CHEMBL184331

> <chembl_pref_name>
None

> <i_m_ct_stereo_status>
1

> <s_m_source_file>
sdf/inactives_sanitized.sdf

> <i_m_source_file_index>
372

> <i_lp_mmshare_version>
49012

> <i_f3d_flags>
0

> <s_epik_input>
W2NIXTFbY0hdW2NIXVtjSF1bY0hdYzFbQ0BASF0oW0NIM10pW05IXUMoPU8pQyg9TylbQ0BIXShbQ0gyXVtDSDJdW0NIMl1bQ0gzXSlbTkhdQyg9TylPW0NIMl1DMihbQ0gyXVtDSDNdKVtDSDJdW0NIMl1bQ0gyXVtDSDJdW0NIMl0y

> <s_epik_cmdline>
J2VwaWtfcHl0aG9uJywgJy1waHQnLCAnMC41JywgJy1waCcsICc3LjUnLCAnLW50JywgJy1tYScsICcyMDAnLCAnLWltYWUnLCAnPGluZmlsZS5tYWU+JywgJy1vbWFlJywgJzxvdXRmaWxlLm1hZT4n

> <r_lp_tautomer_probability>
1

> <r_epik_Ionization_Penalty>
  0.0000

> <r_epik_Ionization_Penalty_Charging>
  0.0000

> <r_epik_Ionization_Penalty_Neutral>
  0.0000

> <r_epik_State_Penalty>
 -0.0000

> <r_epik_Charging_Adjusted_Penalty>
0

> <i_epik_Tot_Q>
0

> <i_epik_Tot_abs_Q>
0

> <s_epik_Chemistry_Notes>
This compound has an ester and may undergo hydrolysis at high or low pH.

> <s_lp_Force_Field>
OPLS3e

> <r_lp_Energy>
43.492511

> <b_lp_Chiralities_Consistent>
1

> <s_lp_Variant>
sdf/inactives_sanitized.sdf:372-1

$$$$
sdf/inactives_sanitized.sdf:373
                    3D
 Schrodinger Suite 2020-1.
 60 62  0  0  1  0            999 V2000
   -1.9584    4.1647    2.6082 C   0  0  0  0  0  0
   -2.2906    3.1701    1.5163 C   0  0  0  0  0  0
   -1.7423    4.5422    1.1665 C   0  0  0  0  0  0
   -4.1388   -1.4437    1.8530 C   0  0  0  0  0  0
   -5.0578   -0.7822    1.0419 C   0  0  0  0  0  0
   -4.7227   -0.4255   -0.2622 C   0  0  0  0  0  0
   -3.4595   -0.7320   -0.7594 C   0  0  0  0  0  0
   -2.5312   -1.4023    0.0468 C   0  0  0  0  0  0
   -2.8767   -1.7552    1.3550 C   0  0  0  0  0  0
   -1.1385   -1.7615   -0.4832 C   0  0  2  0  0  0
   -0.3543   -0.5757   -0.8436 N   0  0  1  0  0  0
    0.0163    0.3728    0.2355 C   0  0  2  0  0  0
   -0.9577    1.5747    0.1732 C   0  0  0  0  0  0
   -1.4116    2.0164    1.3571 N   0  0  0  0  0  0
   -1.2522    2.0937   -0.9062 O   0  0  0  0  0  0
   -3.7095    2.9266    1.2025 C   0  0  0  0  0  0
   -4.8245    2.7390    0.9570 N   0  0  0  0  0  0
    1.4862    0.8296    0.0467 C   0  0  0  0  0  0
   -1.1700   -2.7564   -1.6731 C   0  0  0  0  0  0
    0.0632   -3.1330   -2.0167 F   0  0  0  0  0  0
   -1.8367   -3.8654   -1.3504 F   0  0  0  0  0  0
   -1.7444   -2.2489   -2.7651 F   0  0  0  0  0  0
    2.3986    1.2097    1.6715 S   0  0  0  0  0  0
    3.1600   -0.4446    2.2793 C   0  0  0  0  0  0
    3.5060    2.1126    1.3387 O   0  0  0  0  0  0
    1.4045    1.6419    2.6609 O   0  0  0  0  0  0
   -6.2838   -0.4813    1.5258 F   0  0  0  0  0  0
    3.8454   -0.1771    3.6431 C   0  0  0  0  0  0
    2.0245   -1.4979    2.3656 C   0  0  0  0  0  0
    4.1790   -0.9397    1.2181 C   0  0  0  0  0  0
    3.2529   -0.5653    4.8566 C   0  0  0  0  0  0
    3.8785   -0.3000    6.0717 C   0  0  0  0  0  0
    5.1021    0.3611    6.0906 C   0  0  0  0  0  0
    5.7021    0.7631    4.9021 C   0  0  0  0  0  0
    5.0753    0.4985    3.6876 C   0  0  0  0  0  0
    5.7087    0.6191    7.2711 F   0  0  0  0  0  0
   -2.7756    4.6362    3.1551 H   0  0  0  0  0  0
   -1.0827    3.9928    3.2352 H   0  0  0  0  0  0
   -0.7188    4.6279    0.7994 H   0  0  0  0  0  0
   -2.4092    5.2752    0.7118 H   0  0  0  0  0  0
   -4.4053   -1.7156    2.8637 H   0  0  0  0  0  0
   -5.4374    0.0942   -0.8832 H   0  0  0  0  0  0
   -3.2028   -0.4403   -1.7671 H   0  0  0  0  0  0
   -2.1698   -2.2710    1.9886 H   0  0  0  0  0  0
   -0.5899   -2.2626    0.3164 H   0  0  0  0  0  0
    0.3522   -0.7387   -1.5471 H   0  0  0  0  0  0
   -0.0679   -0.1479    1.1898 H   0  0  0  0  0  0
   -1.1838    1.4994    2.1940 H   0  0  0  0  0  0
    2.0837    0.1093   -0.5098 H   0  0  0  0  0  0
    1.5378    1.7513   -0.5361 H   0  0  0  0  0  0
    2.3817   -2.4307    2.8044 H   0  0  0  0  0  0
    1.6295   -1.7497    1.3815 H   0  0  0  0  0  0
    1.1842   -1.1483    2.9660 H   0  0  0  0  0  0
    4.7317   -1.8080    1.5789 H   0  0  0  0  0  0
    4.9084   -0.1768    0.9484 H   0  0  0  0  0  0
    3.6928   -1.2412    0.2907 H   0  0  0  0  0  0
    2.3014   -1.0725    4.8851 H   0  0  0  0  0  0
    3.4132   -0.6042    6.9978 H   0  0  0  0  0  0
    6.6483    1.2835    4.9216 H   0  0  0  0  0  0
    5.5562    0.8377    2.7831 H   0  0  0  0  0  0
  1  2  1  0  0  0
  1  3  1  0  0  0
  1 37  1  0  0  0
  1 38  1  0  0  0
  2 14  1  0  0  0
  2 16  1  0  0  0
  2  3  1  0  0  0
  3 39  1  0  0  0
  3 40  1  0  0  0
  4  5  2  0  0  0
  4  9  1  0  0  0
  4 41  1  0  0  0
  5 27  1  0  0  0
  5  6  1  0  0  0
  6  7  2  0  0  0
  6 42  1  0  0  0
  7  8  1  0  0  0
  7 43  1  0  0  0
  8 10  1  0  0  0
  8  9  2  0  0  0
  9 44  1  0  0  0
 10 11  1  0  0  0
 10 19  1  0  0  0
 10 45  1  0  0  0
 11 12  1  0  0  0
 11 46  1  0  0  0
 12 13  1  0  0  0
 12 18  1  0  0  0
 12 47  1  0  0  0
 13 14  1  0  0  0
 13 15  2  0  0  0
 14 48  1  0  0  0
 16 17  3  0  0  0
 18 23  1  0  0  0
 18 49  1  0  0  0
 18 50  1  0  0  0
 19 20  1  0  0  0
 19 21  1  0  0  0
 19 22  1  0  0  0
 23 24  1  0  0  0
 23 25  2  0  0  0
 23 26  2  0  0  0
 24 28  1  0  0  0
 24 29  1  0  0  0
 24 30  1  0  0  0
 28 31  2  0  0  0
 28 35  1  0  0  0
 29 51  1  0  0  0
 29 52  1  0  0  0
 29 53  1  0  0  0
 30 54  1  0  0  0
 30 55  1  0  0  0
 30 56  1  0  0  0
 31 32  1  0  0  0
 31 57  1  0  0  0
 32 33  2  0  0  0
 32 58  1  0  0  0
 33 34  1  0  0  0
 33 36  1  0  0  0
 34 35  2  0  0  0
 34 59  1  0  0  0
 35 60  1  0  0  0
M  END
> <chembl_id>
CHEMBL437579

> <chembl_pref_name>
None

> <i_m_ct_stereo_status>
1

> <s_m_source_file>
sdf/inactives_sanitized.sdf

> <i_m_source_file_index>
373

> <i_lp_mmshare_version>
49012

> <i_f3d_flags>
0

> <s_epik_input>
RmMxW2NIXVtjSF1jKFtjSF1bY0hdMSlbQ0BASF0oQyhGKShGKUYpW05IXVtDQEhdKEMoPU8pW05IXUMyKEMjTilbQ0gyXVtDSDJdMilbQ0gyXVMoPU8pKD1PKUMoW0NIM10pKFtDSDNdKWMzW2NIXVtjSF1jKEYpW2NIXVtjSF0z

> <s_epik_cmdline>
J2VwaWtfcHl0aG9uJywgJy1waHQnLCAnMC41JywgJy1waCcsICc3LjUnLCAnLW50JywgJy1tYScsICcyMDAnLCAnLWltYWUnLCAnPGluZmlsZS5tYWU+JywgJy1vbWFlJywgJzxvdXRmaWxlLm1hZT4n

> <r_lp_tautomer_probability>
1

> <r_epik_Ionization_Penalty>
  0.0002

> <r_epik_Ionization_Penalty_Charging>
  0.0000

> <r_epik_Ionization_Penalty_Neutral>
  0.0002

> <r_epik_State_Penalty>
 -0.0000

> <r_epik_Charging_Adjusted_Penalty>
0

> <i_epik_Tot_Q>
0

> <i_epik_Tot_abs_Q>
0

> <s_lp_Force_Field>
OPLS3e

> <r_lp_Energy>
40.577012

> <b_lp_Chiralities_Consistent>
1

> <s_lp_Variant>
sdf/inactives_sanitized.sdf:373-1

$$$$
sdf/inactives_sanitized.sdf:374
                    3D
 Schrodinger Suite 2020-1.
 51 53  0  0  1  0            999 V2000
    3.4479   -0.1410   -4.0174 C   0  0  0  0  0  0
    4.0059   -0.2998   -2.6141 C   0  0  0  0  0  0
    4.5003    0.8119   -3.5158 C   0  0  0  0  0  0
    0.3249    2.1749   -3.9961 C   0  0  0  0  0  0
    1.2412    3.2160   -3.8678 C   0  0  0  0  0  0
    1.5722    3.7165   -2.6110 C   0  0  0  0  0  0
    0.9826    3.1719   -1.4735 C   0  0  0  0  0  0
    0.0657    2.1223   -1.5907 C   0  0  0  0  0  0
   -0.2602    1.6253   -2.8589 C   0  0  0  0  0  0
   -0.5500    1.5204   -0.3203 C   0  0  2  0  0  0
   -0.1354    0.1280   -0.1109 N   0  0  2  0  0  0
    1.3158   -0.0642    0.1329 C   0  0  2  0  0  0
    2.0187   -0.5494   -1.1560 C   0  0  0  0  0  0
    3.1681    0.0683   -1.4776 N   0  0  0  0  0  0
    1.5195   -1.4552   -1.8261 O   0  0  0  0  0  0
    4.8815   -1.4613   -2.3801 C   0  0  0  0  0  0
    5.5690   -2.3733   -2.1954 N   0  0  0  0  0  0
    1.6003   -0.9870    1.3364 C   0  0  0  0  0  0
   -2.0974    1.6230   -0.2685 C   0  0  0  0  0  0
   -2.5677    1.2192    0.9131 F   0  0  0  0  0  0
   -2.4970    2.8846   -0.4326 F   0  0  0  0  0  0
   -2.7030    0.8887   -1.2036 F   0  0  0  0  0  0
    1.5526   -0.0672    2.9861 S   0  0  0  0  0  0
    1.8513   -1.4266    4.2655 C   0  0  0  0  0  0
    2.6961    0.8509    3.0208 O   0  0  0  0  0  0
    0.1955    0.4550    3.1792 O   0  0  0  0  0  0
    1.9506   -0.8123    5.6705 C   0  0  0  0  0  0
    1.4174   -1.5697    6.8593 C   0  0  0  0  0  0
    0.7100   -0.3187    6.3706 C   0  0  0  0  0  0
    1.8174    3.7422   -4.9720 F   0  0  0  0  0  0
    3.7253   -0.8696   -4.7796 H   0  0  0  0  0  0
    2.4302    0.2264   -4.1473 H   0  0  0  0  0  0
    4.2058    1.8403   -3.3037 H   0  0  0  0  0  0
    5.5068    0.7441   -3.9296 H   0  0  0  0  0  0
    0.0755    1.7887   -4.9734 H   0  0  0  0  0  0
    2.2845    4.5229   -2.5189 H   0  0  0  0  0  0
    1.2474    3.5620   -0.5014 H   0  0  0  0  0  0
   -0.9549    0.8059   -2.9685 H   0  0  0  0  0  0
   -0.1849    2.0885    0.5381 H   0  0  0  0  0  0
   -0.3654   -0.3616   -0.9647 H   0  0  0  0  0  0
    1.7949    0.8862    0.3829 H   0  0  0  0  0  0
    3.5433    0.7586   -0.8432 H   0  0  0  0  0  0
    0.8604   -1.7864    1.3937 H   0  0  0  0  0  0
    2.5677   -1.4863    1.2627 H   0  0  0  0  0  0
    1.0290   -2.1374    4.1784 H   0  0  0  0  0  0
    2.7748   -1.9358    3.9906 H   0  0  0  0  0  0
    2.8746   -0.2502    5.8119 H   0  0  0  0  0  0
    0.9499   -2.5415    6.6976 H   0  0  0  0  0  0
    1.9816   -1.5308    7.7912 H   0  0  0  0  0  0
   -0.2512   -0.4150    5.8650 H   0  0  0  0  0  0
    0.7799    0.5975    6.9574 H   0  0  0  0  0  0
  1  2  1  0  0  0
  1  3  1  0  0  0
  1 31  1  0  0  0
  1 32  1  0  0  0
  2 14  1  0  0  0
  2 16  1  0  0  0
  2  3  1  0  0  0
  3 33  1  0  0  0
  3 34  1  0  0  0
  4  5  2  0  0  0
  4  9  1  0  0  0
  4 35  1  0  0  0
  5  6  1  0  0  0
  5 30  1  0  0  0
  6  7  2  0  0  0
  6 36  1  0  0  0
  7  8  1  0  0  0
  7 37  1  0  0  0
  8  9  2  0  0  0
  8 10  1  0  0  0
  9 38  1  0  0  0
 10 11  1  0  0  0
 10 19  1  0  0  0
 10 39  1  0  0  0
 11 12  1  0  0  0
 11 40  1  0  0  0
 12 13  1  0  0  0
 12 18  1  0  0  0
 12 41  1  0  0  0
 13 14  1  0  0  0
 13 15  2  0  0  0
 14 42  1  0  0  0
 16 17  3  0  0  0
 18 23  1  0  0  0
 18 43  1  0  0  0
 18 44  1  0  0  0
 19 20  1  0  0  0
 19 21  1  0  0  0
 19 22  1  0  0  0
 23 24  1  0  0  0
 23 25  2  0  0  0
 23 26  2  0  0  0
 24 27  1  0  0  0
 24 45  1  0  0  0
 24 46  1  0  0  0
 27 28  1  0  0  0
 27 29  1  0  0  0
 27 47  1  0  0  0
 28 29  1  0  0  0
 28 48  1  0  0  0
 28 49  1  0  0  0
 29 50  1  0  0  0
 29 51  1  0  0  0
M  END
> <chembl_id>
CHEMBL251327

> <chembl_pref_name>
None

> <i_m_ct_stereo_status>
1

> <s_m_source_file>
sdf/inactives_sanitized.sdf

> <i_m_source_file_index>
374

> <i_lp_mmshare_version>
49012

> <i_f3d_flags>
0

> <s_epik_input>
W0NIMl0xW0NIMl1bQ0hdMVtDSDJdUyg9TykoPU8pW0NIMl1bQ0BASF0oQyg9TylbTkhdQzIoQyNOKVtDSDJdW0NIMl0yKVtOSF1bQ0BIXShDKEYpKEYpRiljKFtjSF1bY0hdMylbY0hdW2NIXWMzRg==

> <s_epik_cmdline>
J2VwaWtfcHl0aG9uJywgJy1waHQnLCAnMC41JywgJy1waCcsICc3LjUnLCAnLW50JywgJy1tYScsICcyMDAnLCAnLWltYWUnLCAnPGluZmlsZS5tYWU+JywgJy1vbWFlJywgJzxvdXRmaWxlLm1hZT4n

> <r_lp_tautomer_probability>
1

> <r_epik_Ionization_Penalty>
  0.0001

> <r_epik_Ionization_Penalty_Charging>
  0.0000

> <r_epik_Ionization_Penalty_Neutral>
  0.0001

> <r_epik_State_Penalty>
 -0.0000

> <r_epik_Charging_Adjusted_Penalty>
0

> <i_epik_Tot_Q>
0

> <i_epik_Tot_abs_Q>
0

> <s_lp_Force_Field>
OPLS3e

> <r_lp_Energy>
25.035619

> <b_lp_Chiralities_Consistent>
1

> <s_lp_Variant>
sdf/inactives_sanitized.sdf:374-1

$$$$
sdf/inactives_sanitized.sdf:375
                    3D
 Schrodinger Suite 2020-1.
 72 76  0  0  1  0            999 V2000
   -1.9172   -1.8303   -0.2471 C   0  0  2  0  0  0
   -2.6460   -1.6567   -1.6139 C   0  0  0  0  0  0
   -2.0277   -2.5492   -2.7115 C   0  0  0  0  0  0
   -2.1770   -4.0253   -2.2688 N   0  3  2  0  0  0
   -1.5823   -4.3029   -0.8661 C   0  0  0  0  0  0
   -2.2159   -3.3083    0.1328 C   0  0  0  0  0  0
   -2.5401   -0.8560    0.8083 C   0  0  0  0  0  0
   -1.9132   -0.8684    2.2039 C   0  0  0  0  0  0
   -1.5424   -4.9637   -3.3138 C   0  0  0  0  0  0
    1.3561    3.8515   -4.9763 C   0  0  0  0  0  0
    2.1207    4.5900   -3.8966 C   0  0  0  0  0  0
    1.9578    5.2059   -5.2696 C   0  0  0  0  0  0
    2.7140    2.9670    0.2037 C   0  0  0  0  0  0
    2.7149    3.8265   -1.0846 C   0  0  0  0  0  0
    1.2863    4.2411   -1.5191 C   0  0  0  0  0  0
    1.3150    5.2000   -2.7260 C   0  0  0  0  0  0
    3.5164    4.0550   -3.5013 C   0  0  0  0  0  0
    3.4212    3.1279   -2.2735 C   0  0  0  0  0  0
    1.9487    1.7237    0.0983 N   0  0  0  0  0  0
   -0.4564   -1.6075   -0.3084 N   0  0  0  0  0  0
    0.2042   -0.5261   -0.7694 C   0  0  0  0  0  0
    1.7103   -0.6020   -0.6683 C   0  0  0  0  0  0
   -0.3521    0.4749   -1.2218 O   0  0  0  0  0  0
    2.5236    0.4913   -0.2775 C   0  0  0  0  0  0
    3.8829    0.3770   -0.2329 N   0  0  0  0  0  0
    4.4139   -0.8220   -0.5726 C   0  0  0  0  0  0
    3.7292   -1.9270   -0.9502 N   0  0  0  0  0  0
    2.3799   -1.7954   -0.9911 C   0  0  0  0  0  0
    5.8618   -0.9302   -0.5285 C   0  0  0  0  0  0
    7.0154   -1.0162   -0.4936 N   0  0  0  0  0  0
   -2.3797   -1.7621    3.1725 C   0  0  0  0  0  0
   -1.8109   -1.7727    4.4434 C   0  0  0  0  0  0
   -0.7813   -0.8845    4.7459 C   0  0  0  0  0  0
   -0.3183    0.0174    3.7908 C   0  0  0  0  0  0
   -0.8877    0.0285    2.5207 C   0  0  0  0  0  0
   -2.5782   -0.6214   -1.9489 H   0  0  0  0  0  0
   -3.7147   -1.8578   -1.5207 H   0  0  0  0  0  0
   -2.5640   -2.4530   -3.6564 H   0  0  0  0  0  0
   -0.9666   -2.3575   -2.8790 H   0  0  0  0  0  0
   -1.8384   -5.3347   -0.6215 H   0  0  0  0  0  0
   -0.4976   -4.2104   -0.9413 H   0  0  0  0  0  0
   -3.2893   -3.4886    0.2152 H   0  0  0  0  0  0
   -1.8022   -3.5303    1.1167 H   0  0  0  0  0  0
   -2.5040    0.1690    0.4347 H   0  0  0  0  0  0
   -3.6079   -1.0569    0.9129 H   0  0  0  0  0  0
   -0.4750   -4.7423   -3.3638 H   0  0  0  0  0  0
   -2.0382   -4.7695   -4.2657 H   0  0  0  0  0  0
   -1.7260   -5.9870   -2.9834 H   0  0  0  0  0  0
    1.8048    2.9630   -5.4215 H   0  0  0  0  0  0
    0.2736    3.7601   -4.8821 H   0  0  0  0  0  0
    1.2978    6.0666   -5.3817 H   0  0  0  0  0  0
    2.8297    5.2693   -5.9215 H   0  0  0  0  0  0
    2.2766    3.5344    1.0257 H   0  0  0  0  0  0
    3.7402    2.7585    0.5077 H   0  0  0  0  0  0
    3.2702    4.7410   -0.8674 H   0  0  0  0  0  0
    0.6831    3.3597   -1.7428 H   0  0  0  0  0  0
    0.7750    4.7222   -0.6842 H   0  0  0  0  0  0
    1.7764    6.1422   -2.4274 H   0  0  0  0  0  0
    0.2968    5.4456   -3.0320 H   0  0  0  0  0  0
    3.9878    3.5275   -4.3318 H   0  0  0  0  0  0
    4.1695    4.8971   -3.2679 H   0  0  0  0  0  0
    2.9076    2.2014   -2.5340 H   0  0  0  0  0  0
    4.4223    2.8158   -1.9732 H   0  0  0  0  0  0
    0.9501    1.8162   -0.0234 H   0  0  0  0  0  0
    0.1028   -2.3517    0.0820 H   0  0  0  0  0  0
    1.8399   -2.6763   -1.3086 H   0  0  0  0  0  0
   -3.1805   -2.4497    2.9423 H   0  0  0  0  0  0
   -2.1673   -2.4648    5.1919 H   0  0  0  0  0  0
   -0.3408   -0.8920    5.7321 H   0  0  0  0  0  0
    0.4766    0.7068    4.0349 H   0  0  0  0  0  0
   -0.5288    0.7339    1.7857 H   0  0  0  0  0  0
   -3.1671   -4.2220   -2.2170 H   0  0  0  0  0  0
  1 20  1  0  0  0
  1  7  1  0  0  0
  1  2  1  0  0  0
  1  6  1  0  0  0
  2  3  1  0  0  0
  2 36  1  0  0  0
  2 37  1  0  0  0
  3  4  1  0  0  0
  3 38  1  0  0  0
  3 39  1  0  0  0
  4  9  1  0  0  0
  4  5  1  0  0  0
  4 72  1  0  0  0
  5  6  1  0  0  0
  5 40  1  0  0  0
  5 41  1  0  0  0
  6 42  1  0  0  0
  6 43  1  0  0  0
  7  8  1  0  0  0
  7 44  1  0  0  0
  7 45  1  0  0  0
  8 31  2  0  0  0
  8 35  1  0  0  0
  9 46  1  0  0  0
  9 47  1  0  0  0
  9 48  1  0  0  0
 10 11  1  0  0  0
 10 12  1  0  0  0
 10 49  1  0  0  0
 10 50  1  0  0  0
 11 16  1  0  0  0
 11 17  1  0  0  0
 11 12  1  0  0  0
 12 51  1  0  0  0
 12 52  1  0  0  0
 13 19  1  0  0  0
 13 14  1  0  0  0
 13 53  1  0  0  0
 13 54  1  0  0  0
 14 15  1  0  0  0
 14 18  1  0  0  0
 14 55  1  0  0  0
 15 16  1  0  0  0
 15 56  1  0  0  0
 15 57  1  0  0  0
 16 58  1  0  0  0
 16 59  1  0  0  0
 17 18  1  0  0  0
 17 60  1  0  0  0
 17 61  1  0  0  0
 18 62  1  0  0  0
 18 63  1  0  0  0
 19 24  1  0  0  0
 19 64  1  0  0  0
 20 21  1  0  0  0
 20 65  1  0  0  0
 21 22  1  0  0  0
 21 23  2  0  0  0
 22 24  1  0  0  0
 22 28  2  0  0  0
 24 25  2  0  0  0
 25 26  1  0  0  0
 26 27  2  0  0  0
 26 29  1  0  0  0
 27 28  1  0  0  0
 28 66  1  0  0  0
 29 30  3  0  0  0
 31 32  1  0  0  0
 31 67  1  0  0  0
 32 33  2  0  0  0
 32 68  1  0  0  0
 33 34  1  0  0  0
 33 69  1  0  0  0
 34 35  2  0  0  0
 34 70  1  0  0  0
 35 71  1  0  0  0
M  CHG  1   4   1
M  END
> <chembl_id>
CHEMBL456135

> <chembl_pref_name>
None

> <s_m_source_file>
sdf/inactives_sanitized.sdf

> <i_m_source_file_index>
375

> <i_lp_mmshare_version>
49012

> <i_m_ct_stereo_status>
1

> <i_f3d_flags>
0

> <s_epik_input>
W2NIXTFbY0hdW2NIXVtjSF1bY0hdYzFbQ0gyXUMyKFtDSDJdW0NIMl1OKFtDSDNdKVtDSDJdW0NIMl0yKVtOSF1DKD1PKWMzYyhuYyhDI04pbltjSF0zKVtOSF1bQ0gyXVtDSF0oW0NIMl1bQ0gyXTQpW0NIMl1bQ0gyXUM0NVtDSDJdW0NIMl01

> <s_epik_cmdline>
J2VwaWtfcHl0aG9uJywgJy1waHQnLCAnMC41JywgJy1waCcsICc3LjUnLCAnLW50JywgJy1tYScsICcyMDAnLCAnLWltYWUnLCAnPGluZmlsZS5tYWU+JywgJy1vbWFlJywgJzxvdXRmaWxlLm1hZT4n

> <r_epik_Ionization_Penalty>
  0.0313

> <r_epik_Ionization_Penalty_Charging>
  0.0312

> <r_epik_Ionization_Penalty_Neutral>
  0.0001

> <r_epik_State_Penalty>
  0.0258

> <r_epik_Charging_Adjusted_Penalty>
0.0570329013002484

> <i_epik_Tot_Q>
1

> <i_epik_Tot_abs_Q>
1

> <s_lp_Force_Field>
OPLS3e

> <r_lp_Energy>
39.254461

> <b_lp_Chiralities_Consistent>
1

> <s_lp_Variant>
sdf/inactives_sanitized.sdf:375-1

$$$$
sdf/inactives_sanitized.sdf:376
                    3D
 Schrodinger Suite 2020-1.
 47 49  0  0  1  0            999 V2000
   -0.6791    2.1132   -1.0956 C   0  0  0  0  0  0
   -1.1537    3.4281   -1.1474 C   0  0  0  0  0  0
   -1.4869    4.0762    0.0474 C   0  0  0  0  0  0
   -1.3337    3.4248    1.2713 C   0  0  0  0  0  0
   -0.8390    2.1218    1.3130 C   0  0  0  0  0  0
   -0.5023    1.4598    0.1291 C   0  0  0  0  0  0
    0.0659    0.0430    0.1717 C   0  0  0  0  0  0
    1.6146    0.0001    0.0387 C   0  0  2  0  0  0
    2.0913    0.6120   -1.2072 N   0  0  0  0  0  0
    2.1241   -1.4515    0.1165 C   0  0  0  0  0  0
    1.9135   -2.2274   -0.8178 O   0  0  0  0  0  0
    2.7499   -1.8055    1.2514 N   0  0  0  0  0  0
    3.3236   -3.1265    1.4895 C   0  0  0  0  0  0
    4.4540   -3.4320    0.5942 C   0  0  0  0  0  0
    5.3416   -3.6718   -0.1085 N   0  0  0  0  0  0
    2.7153    1.8007   -1.3197 C   0  0  0  0  0  0
    2.9876    2.5145   -0.3517 O   0  0  0  0  0  0
    3.0103    2.2637   -2.7287 C   0  0  0  0  0  0
    3.1563    3.6337   -2.9902 C   0  0  0  0  0  0
    3.4077    4.0836   -4.2834 C   0  0  0  0  0  0
    3.5207    3.1661   -5.3237 C   0  0  0  0  0  0
    3.3868    1.8018   -5.0815 C   0  0  0  0  0  0
    3.1333    1.3506   -3.7890 C   0  0  0  0  0  0
   -1.2839    4.1287   -2.4576 C   0  0  0  0  0  0
   -0.6193    3.8531   -3.6684 C   0  0  0  0  0  0
   -0.9510    4.6632   -4.6479 N   0  0  0  0  0  0
   -1.8430    5.4885   -4.0970 N   0  0  0  0  0  0
   -2.0832    5.2172   -2.7783 C   0  0  0  0  0  0
   -0.4238    1.5981   -2.0105 H   0  0  0  0  0  0
   -1.8559    5.0913    0.0347 H   0  0  0  0  0  0
   -1.5884    3.9347    2.1886 H   0  0  0  0  0  0
   -0.7107    1.6322    2.2674 H   0  0  0  0  0  0
   -0.2574   -0.4395    1.0963 H   0  0  0  0  0  0
   -0.4133   -0.5370   -0.6200 H   0  0  0  0  0  0
    2.0208    0.5493    0.8916 H   0  0  0  0  0  0
    1.9082    0.0792   -2.0448 H   0  0  0  0  0  0
    2.9011   -1.1080    1.9659 H   0  0  0  0  0  0
    2.5661   -3.9046    1.3808 H   0  0  0  0  0  0
    3.6865   -3.1746    2.5161 H   0  0  0  0  0  0
    3.0652    4.3625   -2.1969 H   0  0  0  0  0  0
    3.5126    5.1408   -4.4786 H   0  0  0  0  0  0
    3.7154    3.5156   -6.3269 H   0  0  0  0  0  0
    3.4789    1.0955   -5.8936 H   0  0  0  0  0  0
    3.0358    0.2866   -3.6261 H   0  0  0  0  0  0
    0.1067    3.0685   -3.8238 H   0  0  0  0  0  0
   -2.2815    6.2317   -4.6219 H   0  0  0  0  0  0
   -2.7835    5.8065   -2.2049 H   0  0  0  0  0  0
  1  6  2  0  0  0
  1  2  1  0  0  0
  1 29  1  0  0  0
  2  3  2  0  0  0
  2 24  1  0  0  0
  3  4  1  0  0  0
  3 30  1  0  0  0
  4  5  2  0  0  0
  4 31  1  0  0  0
  5  6  1  0  0  0
  5 32  1  0  0  0
  6  7  1  0  0  0
  7  8  1  0  0  0
  7 33  1  0  0  0
  7 34  1  0  0  0
  8  9  1  0  0  0
  8 10  1  0  0  0
  8 35  1  0  0  0
  9 16  1  0  0  0
  9 36  1  0  0  0
 10 11  2  0  0  0
 10 12  1  0  0  0
 12 13  1  0  0  0
 12 37  1  0  0  0
 13 14  1  0  0  0
 13 38  1  0  0  0
 13 39  1  0  0  0
 14 15  3  0  0  0
 16 17  2  0  0  0
 16 18  1  0  0  0
 18 19  2  0  0  0
 18 23  1  0  0  0
 19 20  1  0  0  0
 19 40  1  0  0  0
 20 21  2  0  0  0
 20 41  1  0  0  0
 21 22  1  0  0  0
 21 42  1  0  0  0
 22 23  2  0  0  0
 22 43  1  0  0  0
 23 44  1  0  0  0
 24 25  1  0  0  0
 24 28  2  0  0  0
 25 26  2  0  0  0
 25 45  1  0  0  0
 26 27  1  0  0  0
 27 28  1  0  0  0
 27 46  1  0  0  0
 28 47  1  0  0  0
M  END
> <chembl_id>
CHEMBL561802

> <chembl_pref_name>
None

> <i_m_ct_stereo_status>
1

> <s_m_source_file>
sdf/inactives_sanitized.sdf

> <i_m_source_file_index>
376

> <i_lp_mmshare_version>
49012

> <i_f3d_flags>
0

> <s_epik_input>
W2NIXTFbbkhdbltjSF1jMS1jMltjSF1jKFtjSF1bY0hdW2NIXTIpW0NIMl1bQ0BASF0oQyg9TylbTkhdW0NIMl1DI04pW05IXUMoPU8pYzNbY0hdW2NIXVtjSF1bY0hdW2NIXTM=

> <s_epik_cmdline>
J2VwaWtfcHl0aG9uJywgJy1waHQnLCAnMC41JywgJy1waCcsICc3LjUnLCAnLW50JywgJy1tYScsICcyMDAnLCAnLWltYWUnLCAnPGluZmlsZS5tYWU+JywgJy1vbWFlJywgJzxvdXRmaWxlLm1hZT4n

> <r_lp_tautomer_probability>
1

> <r_epik_Ionization_Penalty>
  0.0000

> <r_epik_Ionization_Penalty_Charging>
  0.0000

> <r_epik_Ionization_Penalty_Neutral>
  0.0000

> <r_epik_State_Penalty>
 -0.0000

> <r_epik_Charging_Adjusted_Penalty>
0

> <i_epik_Tot_Q>
0

> <i_epik_Tot_abs_Q>
0

> <s_lp_Force_Field>
OPLS3e

> <r_lp_Energy>
26.616731

> <b_lp_Chiralities_Consistent>
1

> <s_lp_Variant>
sdf/inactives_sanitized.sdf:376-1

$$$$
sdf/inactives_sanitized.sdf:377
                    3D
 Schrodinger Suite 2020-1.
 77 79  0  0  1  0            999 V2000
    2.7689   -0.0957    2.5020 C   0  0  0  0  0  0
    2.3243   -0.5293    1.2580 N   0  0  0  0  0  0
    0.3082    0.8589    0.6535 C   0  0  0  0  0  0
    1.7429    0.4108    0.2835 C   0  0  2  0  0  0
   -7.8689    1.8604   -7.4251 N   0  3  1  0  0  0
    2.7694    1.0675    2.9140 O   0  0  0  0  0  0
   -0.4558    0.0800    1.2271 O   0  0  0  0  0  0
    3.2112   -1.1595    3.1990 O   0  0  0  0  0  0
    1.7488   -0.2484   -1.1232 C   0  0  0  0  0  0
   -6.1765   -1.0209   -4.7111 O   0  0  0  0  0  0
   -0.0335    2.1007    0.2686 N   0  0  0  0  0  0
   -5.9598    0.3572   -6.7971 C   0  0  0  0  0  0
   -8.0134    0.5964   -5.2593 C   0  0  0  0  0  0
   -8.8277    1.1470   -6.4442 C   0  0  0  0  0  0
   -6.7848    0.9051   -7.9748 C   0  0  0  0  0  0
   -6.8733   -0.3259   -5.7520 C   0  0  2  0  0  0
   -5.3552   -0.4061   -3.7814 C   0  0  0  0  0  0
   -3.6294    0.6010   -1.8058 C   0  0  0  0  0  0
   -2.7505    1.0420   -0.8025 N   0  0  0  0  0  0
    3.7442   -1.0018    4.5107 C   0  0  0  0  0  0
   -4.7144   -1.2661   -2.8884 C   0  0  0  0  0  0
   -5.1273    0.9738   -3.6724 C   0  0  0  0  0  0
   -3.8578   -0.7706   -1.9098 C   0  0  0  0  0  0
   -4.2729    1.4727   -2.6925 C   0  0  0  0  0  0
    4.2560   -2.3303    5.0504 C   0  0  0  0  0  0
   -8.6703    2.4717   -8.5918 C   0  0  0  0  0  0
    3.1494   -0.5748   -1.6969 C   0  0  0  0  0  0
   -1.3516    2.7072    0.4575 C   0  0  0  0  0  0
   -2.3258    2.4349   -0.7053 C   0  0  0  0  0  0
    4.0180   -2.6626    6.3864 C   0  0  0  0  0  0
    4.9792   -3.2046    4.2315 C   0  0  0  0  0  0
    4.0263    0.6847   -1.8649 C   0  0  0  0  0  0
    3.0354   -1.3851   -3.0064 C   0  0  0  0  0  0
    4.4919   -3.8670    6.9003 C   0  0  0  0  0  0
    5.4516   -4.4096    4.7453 C   0  0  0  0  0  0
    5.2056   -4.7354    6.0772 C   0  0  0  0  0  0
    2.2863   -1.5187    1.0609 H   0  0  0  0  0  0
    2.3738    1.3018    0.2400 H   0  0  0  0  0  0
    1.1559   -1.1651   -1.0866 H   0  0  0  0  0  0
    1.2360    0.3986   -1.8382 H   0  0  0  0  0  0
    0.6601    2.6720   -0.1921 H   0  0  0  0  0  0
   -5.3942    1.1871   -6.3796 H   0  0  0  0  0  0
   -5.2494   -0.3686   -7.1944 H   0  0  0  0  0  0
   -8.6929    0.0304   -4.6212 H   0  0  0  0  0  0
   -7.6490    1.4470   -4.6882 H   0  0  0  0  0  0
   -9.5630    1.8852   -6.1206 H   0  0  0  0  0  0
   -9.3311    0.3564   -7.0041 H   0  0  0  0  0  0
   -6.1682    1.4816   -8.6661 H   0  0  0  0  0  0
   -7.3000    0.1141   -8.5231 H   0  0  0  0  0  0
   -7.3654   -1.1462   -6.2781 H   0  0  0  0  0  0
   -2.1826    0.3496   -0.3329 H   0  0  0  0  0  0
    4.5662   -0.2839    4.5059 H   0  0  0  0  0  0
    2.9658   -0.6111    5.1687 H   0  0  0  0  0  0
   -4.8795   -2.3317   -2.9551 H   0  0  0  0  0  0
   -5.5922    1.6885   -4.3277 H   0  0  0  0  0  0
   -3.3726   -1.4606   -1.2337 H   0  0  0  0  0  0
   -4.1191    2.5399   -2.6384 H   0  0  0  0  0  0
   -9.1641    1.6600   -9.1288 H   0  0  0  0  0  0
   -7.9607    3.0014   -9.2289 H   0  0  0  0  0  0
   -9.3925    3.1658   -8.1598 H   0  0  0  0  0  0
    3.6548   -1.2253   -0.9819 H   0  0  0  0  0  0
   -1.7918    2.3750    1.4006 H   0  0  0  0  0  0
   -1.2139    3.7835    0.5630 H   0  0  0  0  0  0
   -1.8812    2.7527   -1.6495 H   0  0  0  0  0  0
   -3.2208    3.0458   -0.5803 H   0  0  0  0  0  0
    3.4667   -1.9903    7.0281 H   0  0  0  0  0  0
    5.1776   -2.9527    3.1997 H   0  0  0  0  0  0
    4.5816    0.6902   -2.8027 H   0  0  0  0  0  0
    4.7616    0.7491   -1.0624 H   0  0  0  0  0  0
    3.4353    1.6005   -1.8396 H   0  0  0  0  0  0
    3.3998   -0.8364   -3.8748 H   0  0  0  0  0  0
    2.0050   -1.6670   -3.2255 H   0  0  0  0  0  0
    3.6120   -2.3082   -2.9411 H   0  0  0  0  0  0
    4.3082   -4.1261    7.9325 H   0  0  0  0  0  0
    6.0080   -5.0871    4.1146 H   0  0  0  0  0  0
    5.5732   -5.6694    6.4761 H   0  0  0  0  0  0
   -7.4054    2.6061   -6.9243 H   0  0  0  0  0  0
  1  2  1  0  0  0
  1  6  2  0  0  0
  1  8  1  0  0  0
  2  4  1  0  0  0
  2 37  1  0  0  0
  3  4  1  0  0  0
  3  7  2  0  0  0
  3 11  1  0  0  0
  4  9  1  0  0  0
  4 38  1  0  0  0
  5 14  1  0  0  0
  5 26  1  0  0  0
  5 15  1  0  0  0
  5 77  1  0  0  0
  8 20  1  0  0  0
  9 27  1  0  0  0
  9 39  1  0  0  0
  9 40  1  0  0  0
 10 17  1  0  0  0
 10 16  1  0  0  0
 11 28  1  0  0  0
 11 41  1  0  0  0
 12 16  1  0  0  0
 12 15  1  0  0  0
 12 42  1  0  0  0
 12 43  1  0  0  0
 13 16  1  0  0  0
 13 14  1  0  0  0
 13 44  1  0  0  0
 13 45  1  0  0  0
 14 46  1  0  0  0
 14 47  1  0  0  0
 15 48  1  0  0  0
 15 49  1  0  0  0
 16 50  1  0  0  0
 17 22  2  0  0  0
 17 21  1  0  0  0
 18 19  1  0  0  0
 18 23  1  0  0  0
 18 24  2  0  0  0
 19 29  1  0  0  0
 19 51  1  0  0  0
 20 25  1  0  0  0
 20 52  1  0  0  0
 20 53  1  0  0  0
 21 23  2  0  0  0
 21 54  1  0  0  0
 22 24  1  0  0  0
 22 55  1  0  0  0
 23 56  1  0  0  0
 24 57  1  0  0  0
 25 30  2  0  0  0
 25 31  1  0  0  0
 26 58  1  0  0  0
 26 59  1  0  0  0
 26 60  1  0  0  0
 27 32  1  0  0  0
 27 33  1  0  0  0
 27 61  1  0  0  0
 28 29  1  0  0  0
 28 62  1  0  0  0
 28 63  1  0  0  0
 29 64  1  0  0  0
 29 65  1  0  0  0
 30 34  1  0  0  0
 30 66  1  0  0  0
 31 35  2  0  0  0
 31 67  1  0  0  0
 32 68  1  0  0  0
 32 69  1  0  0  0
 32 70  1  0  0  0
 33 71  1  0  0  0
 33 72  1  0  0  0
 33 73  1  0  0  0
 34 36  2  0  0  0
 34 74  1  0  0  0
 35 36  1  0  0  0
 35 75  1  0  0  0
 36 76  1  0  0  0
M  CHG  1   5   1
M  END
> <chembl_id>
CHEMBL59277

> <chembl_pref_name>
None

> <i_m_ct_stereo_status>
1

> <s_m_source_file>
sdf/inactives_sanitized.sdf

> <i_m_source_file_index>
377

> <i_lp_mmshare_version>
49012

> <i_f3d_flags>
0

> <s_epik_input>
W2NIXTFbY0hdW2NIXVtjSF1bY0hdYzFbQ0gyXU9DKD1PKVtOSF1bQ0BASF0oW0NIMl1bQ0hdKFtDSDNdKVtDSDNdKUMoPU8pW05IXVtDSDJdW0NIMl1bTkhdYyhbY0hdW2NIXTIpW2NIXVtjSF1jMk9bQ0hdKFtDSDJdW0NIMl0zKVtDSDJdW0NIMl1OM1tDSDNd

> <s_epik_cmdline>
J2VwaWtfcHl0aG9uJywgJy1waHQnLCAnMC41JywgJy1waCcsICc3LjUnLCAnLW50JywgJy1tYScsICcyMDAnLCAnLWltYWUnLCAnPGluZmlsZS5tYWU+JywgJy1vbWFlJywgJzxvdXRmaWxlLm1hZT4n

> <r_epik_Ionization_Penalty>
  0.0350

> <r_epik_Ionization_Penalty_Charging>
  0.0324

> <r_epik_Ionization_Penalty_Neutral>
  0.0025

> <r_epik_State_Penalty>
  0.0269

> <r_epik_Charging_Adjusted_Penalty>
0.0592728071999554

> <i_epik_Tot_Q>
1

> <i_epik_Tot_abs_Q>
1

> <s_epik_Chemistry_Notes>
This compound has an ester and may undergo hydrolysis at high or low pH.

> <s_lp_Force_Field>
OPLS3e

> <r_lp_Energy>
45.634633

> <b_lp_Chiralities_Consistent>
1

> <s_lp_Variant>
sdf/inactives_sanitized.sdf:377-1

$$$$
sdf/inactives_sanitized.sdf:378
                    3D
 Schrodinger Suite 2020-1.
 65 66  0  0  1  0            999 V2000
    2.8942    5.3441   -6.3864 C   0  0  0  0  0  0
    2.1025    5.1641   -7.5202 C   0  0  0  0  0  0
    0.9126    4.4425   -7.4351 C   0  0  0  0  0  0
    0.5184    3.8991   -6.2159 C   0  0  0  0  0  0
    1.3019    4.0678   -5.0654 C   0  0  0  0  0  0
    2.4946    4.7978   -5.1699 C   0  0  0  0  0  0
    0.8762    3.4812   -3.7578 C   0  0  0  0  0  0
    1.1550    4.1382   -2.5514 C   0  0  0  0  0  0
    0.7764    3.5844   -1.3319 C   0  0  0  0  0  0
    0.1094    2.3592   -1.2950 C   0  0  0  0  0  0
   -0.1922    1.7045   -2.4929 C   0  0  0  0  0  0
    0.1927    2.2589   -3.7095 C   0  0  0  0  0  0
    2.6041    5.8714   -9.0873 S   0  0  0  0  0  0
    1.7383    7.5461   -9.0974 C   0  0  0  0  0  0
    4.0530    6.0956   -9.0297 O   0  0  0  0  0  0
    2.0255    5.0419  -10.1504 O   0  0  0  0  0  0
   -0.2659    1.7470    0.0606 C   0  0  2  0  0  0
    0.1219    0.3343    0.1899 N   0  0  1  0  0  0
   -1.7738    1.9119    0.3783 C   0  0  0  0  0  0
   -2.0681    1.4488    1.5947 F   0  0  0  0  0  0
   -2.1319    3.1965    0.3571 F   0  0  0  0  0  0
   -2.5534    1.2664   -0.4916 F   0  0  0  0  0  0
    1.5726    0.0427    0.3303 C   0  0  2  0  0  0
    2.1658   -0.1618   -1.0830 C   0  0  0  0  0  0
    1.7865   -1.2002    1.2381 C   0  0  0  0  0  0
    3.2477   -1.6892    1.4155 C   0  0  0  0  0  0
    3.2983   -2.9732    2.2709 C   0  0  0  0  0  0
    4.1839   -0.5885    1.9583 C   0  0  0  0  0  0
    1.7845   -1.1048   -1.7802 O   0  0  0  0  0  0
    3.0816    0.7422   -1.4730 N   0  0  0  0  0  0
    3.7906    0.7204   -2.7533 C   0  0  2  0  0  0
    4.7847   -0.4560   -2.8441 C   0  0  0  0  0  0
    4.7340   -1.2009   -3.9514 N   0  0  0  0  0  0
    5.5900   -0.6608   -1.9360 O   0  0  0  0  0  0
    4.5199    2.0634   -2.9227 C   0  0  0  0  0  0
    3.8169    5.9032   -6.4413 H   0  0  0  0  0  0
    0.2900    4.3042   -8.3071 H   0  0  0  0  0  0
   -0.4121    3.3523   -6.1720 H   0  0  0  0  0  0
    3.1293    4.9408   -4.3077 H   0  0  0  0  0  0
    1.6684    5.0884   -2.5493 H   0  0  0  0  0  0
    1.0114    4.1073   -0.4163 H   0  0  0  0  0  0
   -0.7055    0.7537   -2.4810 H   0  0  0  0  0  0
   -0.0318    1.7170   -4.6164 H   0  0  0  0  0  0
    1.9809    8.0615  -10.0264 H   0  0  0  0  0  0
    2.0861    8.1303   -8.2459 H   0  0  0  0  0  0
    0.6621    7.3892   -9.0289 H   0  0  0  0  0  0
    0.2748    2.2892    0.8387 H   0  0  0  0  0  0
   -0.4220   -0.0951    0.9250 H   0  0  0  0  0  0
    2.0701    0.8821    0.8208 H   0  0  0  0  0  0
    1.3829   -0.9756    2.2269 H   0  0  0  0  0  0
    1.1756   -2.0257    0.8663 H   0  0  0  0  0  0
    3.6250   -1.9719    0.4318 H   0  0  0  0  0  0
    3.8001   -2.8233    3.2269 H   0  0  0  0  0  0
    3.8308   -3.7663    1.7454 H   0  0  0  0  0  0
    2.3016   -3.3534    2.4973 H   0  0  0  0  0  0
    3.6306    0.2247    2.4278 H   0  0  0  0  0  0
    4.7766   -0.1579    1.1503 H   0  0  0  0  0  0
    4.8883   -0.9648    2.7000 H   0  0  0  0  0  0
    3.3342    1.4899   -0.8438 H   0  0  0  0  0  0
    3.0454    0.6393   -3.5483 H   0  0  0  0  0  0
    4.0600   -0.9969   -4.6746 H   0  0  0  0  0  0
    5.3657   -1.9799   -4.0657 H   0  0  0  0  0  0
    5.0292    2.1158   -3.8857 H   0  0  0  0  0  0
    5.2663    2.2174   -2.1422 H   0  0  0  0  0  0
    3.8202    2.8980   -2.8799 H   0  0  0  0  0  0
  1  6  2  0  0  0
  1  2  1  0  0  0
  1 36  1  0  0  0
  2  3  2  0  0  0
  2 13  1  0  0  0
  3  4  1  0  0  0
  3 37  1  0  0  0
  4  5  2  0  0  0
  4 38  1  0  0  0
  5  6  1  0  0  0
  5  7  1  0  0  0
  6 39  1  0  0  0
  7 12  2  0  0  0
  7  8  1  0  0  0
  8  9  2  0  0  0
  8 40  1  0  0  0
  9 10  1  0  0  0
  9 41  1  0  0  0
 10 17  1  0  0  0
 10 11  2  0  0  0
 11 12  1  0  0  0
 11 42  1  0  0  0
 12 43  1  0  0  0
 13 14  1  0  0  0
 13 15  2  0  0  0
 13 16  2  0  0  0
 14 44  1  0  0  0
 14 45  1  0  0  0
 14 46  1  0  0  0
 17 18  1  0  0  0
 17 19  1  0  0  0
 17 47  1  0  0  0
 18 23  1  0  0  0
 18 48  1  0  0  0
 19 20  1  0  0  0
 19 21  1  0  0  0
 19 22  1  0  0  0
 23 24  1  0  0  0
 23 25  1  0  0  0
 23 49  1  0  0  0
 24 29  2  0  0  0
 24 30  1  0  0  0
 25 26  1  0  0  0
 25 50  1  0  0  0
 25 51  1  0  0  0
 26 27  1  0  0  0
 26 28  1  0  0  0
 26 52  1  0  0  0
 27 53  1  0  0  0
 27 54  1  0  0  0
 27 55  1  0  0  0
 28 56  1  0  0  0
 28 57  1  0  0  0
 28 58  1  0  0  0
 30 31  1  0  0  0
 30 59  1  0  0  0
 31 32  1  0  0  0
 31 35  1  0  0  0
 31 60  1  0  0  0
 32 33  1  0  0  0
 32 34  2  0  0  0
 33 61  1  0  0  0
 33 62  1  0  0  0
 35 63  1  0  0  0
 35 64  1  0  0  0
 35 65  1  0  0  0
M  END
> <chembl_id>
CHEMBL249680

> <chembl_pref_name>
None

> <i_m_ct_stereo_status>
1

> <s_m_source_file>
sdf/inactives_sanitized.sdf

> <i_m_source_file_index>
378

> <i_lp_mmshare_version>
49012

> <i_f3d_flags>
0

> <s_epik_input>
W0NIM11TKD1PKSg9TyljMVtjSF1bY0hdYyhbY0hdW2NIXTEpLWMyW2NIXVtjSF1jKFtjSF1bY0hdMilbQ0BASF0oQyhGKShGKUYpW05IXVtDQEBIXShbQ0gyXVtDSF0oW0NIM10pW0NIM10pQyg9TylbTkhdW0NAQEhdKFtDSDNdKUMoPU8pW05IMl0=

> <s_epik_cmdline>
J2VwaWtfcHl0aG9uJywgJy1waHQnLCAnMC41JywgJy1waCcsICc3LjUnLCAnLW50JywgJy1tYScsICcyMDAnLCAnLWltYWUnLCAnPGluZmlsZS5tYWU+JywgJy1vbWFlJywgJzxvdXRmaWxlLm1hZT4n

> <r_lp_tautomer_probability>
1

> <r_epik_Ionization_Penalty>
  0.0004

> <r_epik_Ionization_Penalty_Charging>
  0.0000

> <r_epik_Ionization_Penalty_Neutral>
  0.0004

> <r_epik_State_Penalty>
 -0.0000

> <r_epik_Charging_Adjusted_Penalty>
0

> <i_epik_Tot_Q>
0

> <i_epik_Tot_abs_Q>
0

> <s_lp_Force_Field>
OPLS3e

> <r_lp_Energy>
28.355317

> <b_lp_Chiralities_Consistent>
1

> <s_lp_Variant>
sdf/inactives_sanitized.sdf:378-1

$$$$
sdf/inactives_sanitized.sdf:379
                    3D
 Schrodinger Suite 2020-1.
 45 47  0  0  1  0            999 V2000
   -0.4043    1.2613    2.8516 C   0  0  0  0  0  0
    0.0262    1.9317    3.9975 C   0  0  0  0  0  0
    0.9017    1.3046    4.8847 C   0  0  0  0  0  0
    1.3440    0.0075    4.6269 C   0  0  0  0  0  0
    0.9146   -0.6621    3.4810 C   0  0  0  0  0  0
    0.0437   -0.0377    2.5810 C   0  0  0  0  0  0
   -0.4021   -0.7735    1.3158 C   0  0  0  0  0  0
   -0.1309    0.0045   -0.0021 C   0  0  2  0  0  0
   -0.7035   -0.7109   -1.1466 N   0  0  0  0  0  0
    1.3812    0.2689   -0.1963 C   0  0  0  0  0  0
    2.1351   -0.6611   -0.4879 O   0  0  0  0  0  0
    1.7972    1.5252    0.0320 N   0  0  0  0  0  0
    3.1997    1.9248    0.0564 C   0  0  0  0  0  0
    3.9290    1.3469    1.1994 C   0  0  0  0  0  0
    4.5001    0.8933    2.0979 N   0  0  0  0  0  0
   -0.8736   -0.2147   -2.3868 C   0  0  0  0  0  0
   -0.5490    0.9282   -2.7149 O   0  0  0  0  0  0
   -1.4451   -1.1725   -3.4054 C   0  0  0  0  0  0
   -0.5233    3.5366    4.3158 Cl  0  0  0  0  0  0
   -2.3434   -2.9691   -5.4041 N   0  0  0  0  0  0
   -1.2850   -2.1535   -5.6040 C   0  0  0  0  0  0
   -0.8162   -1.2577   -4.6524 C   0  0  0  0  0  0
   -3.0000   -2.8985   -4.2147 C   0  0  0  0  0  0
   -2.6014   -2.0027   -3.1677 C   0  0  0  0  0  0
   -3.3918   -1.9834   -1.9782 C   0  0  0  0  0  0
   -4.4896   -2.8267   -1.8332 C   0  0  0  0  0  0
   -4.8478   -3.7038   -2.8486 C   0  0  0  0  0  0
   -4.1205   -3.7456   -4.0329 C   0  0  0  0  0  0
   -1.0860    1.7546    2.1743 H   0  0  0  0  0  0
    1.2384    1.8202    5.7723 H   0  0  0  0  0  0
    2.0220   -0.4786    5.3129 H   0  0  0  0  0  0
    1.2715   -1.6640    3.2904 H   0  0  0  0  0  0
    0.0763   -1.7544    1.2686 H   0  0  0  0  0  0
   -1.4687   -0.9806    1.4171 H   0  0  0  0  0  0
   -0.6565    0.9598    0.0599 H   0  0  0  0  0  0
   -0.9713   -1.6678   -0.9685 H   0  0  0  0  0  0
    1.1203    2.2241    0.3020 H   0  0  0  0  0  0
    3.2570    3.0104    0.1353 H   0  0  0  0  0  0
    3.7047    1.6434   -0.8692 H   0  0  0  0  0  0
   -0.7970   -2.2337   -6.5643 H   0  0  0  0  0  0
    0.0464   -0.6480   -4.8838 H   0  0  0  0  0  0
   -3.1606   -1.3032   -1.1736 H   0  0  0  0  0  0
   -5.0721   -2.7964   -0.9240 H   0  0  0  0  0  0
   -5.7029   -4.3514   -2.7208 H   0  0  0  0  0  0
   -4.4137   -4.4232   -4.8225 H   0  0  0  0  0  0
  1  6  2  0  0  0
  1  2  1  0  0  0
  1 29  1  0  0  0
  2 19  1  0  0  0
  2  3  2  0  0  0
  3  4  1  0  0  0
  3 30  1  0  0  0
  4  5  2  0  0  0
  4 31  1  0  0  0
  5  6  1  0  0  0
  5 32  1  0  0  0
  6  7  1  0  0  0
  7  8  1  0  0  0
  7 33  1  0  0  0
  7 34  1  0  0  0
  8  9  1  0  0  0
  8 10  1  0  0  0
  8 35  1  0  0  0
  9 16  1  0  0  0
  9 36  1  0  0  0
 10 11  2  0  0  0
 10 12  1  0  0  0
 12 13  1  0  0  0
 12 37  1  0  0  0
 13 14  1  0  0  0
 13 38  1  0  0  0
 13 39  1  0  0  0
 14 15  3  0  0  0
 16 17  2  0  0  0
 16 18  1  0  0  0
 18 24  2  0  0  0
 18 22  1  0  0  0
 20 23  2  0  0  0
 20 21  1  0  0  0
 21 22  2  0  0  0
 21 40  1  0  0  0
 22 41  1  0  0  0
 23 24  1  0  0  0
 23 28  1  0  0  0
 24 25  1  0  0  0
 25 26  2  0  0  0
 25 42  1  0  0  0
 26 27  1  0  0  0
 26 43  1  0  0  0
 27 28  2  0  0  0
 27 44  1  0  0  0
 28 45  1  0  0  0
M  END
> <chembl_id>
CHEMBL552001

> <chembl_pref_name>
None

> <i_m_ct_stereo_status>
1

> <s_m_source_file>
sdf/inactives_sanitized.sdf

> <i_m_source_file_index>
379

> <i_lp_mmshare_version>
49012

> <i_f3d_flags>
0

> <s_epik_input>
W2NIXTFbY0hdW2NIXWMoW2NIXWMxQ2wpW0NIMl1bQ0BASF0oQyg9TylbTkhdW0NIMl1DI04pW05IXUMoPU8pYyhbY0hdW2NIXW4yKWMoYzIzKVtjSF1bY0hdW2NIXVtjSF0z

> <s_epik_cmdline>
J2VwaWtfcHl0aG9uJywgJy1waHQnLCAnMC41JywgJy1waCcsICc3LjUnLCAnLW50JywgJy1tYScsICcyMDAnLCAnLWltYWUnLCAnPGluZmlsZS5tYWU+JywgJy1vbWFlJywgJzxvdXRmaWxlLm1hZT4n

> <r_lp_tautomer_probability>
1

> <r_epik_Ionization_Penalty>
  0.0000

> <r_epik_Ionization_Penalty_Charging>
  0.0000

> <r_epik_Ionization_Penalty_Neutral>
  0.0000

> <r_epik_State_Penalty>
 -0.0000

> <r_epik_Charging_Adjusted_Penalty>
0

> <i_epik_Tot_Q>
0

> <i_epik_Tot_abs_Q>
0

> <s_lp_Force_Field>
OPLS3e

> <r_lp_Energy>
37.943454

> <b_lp_Chiralities_Consistent>
1

> <s_lp_Variant>
sdf/inactives_sanitized.sdf:379-1

$$$$
sdf/inactives_sanitized.sdf:380
                    3D
 Schrodinger Suite 2020-1.
 55 56  0  0  1  0            999 V2000
    0.7799   -2.5686    2.3758 C   0  0  0  0  0  0
    1.2166   -3.8945    2.4518 C   0  0  0  0  0  0
    1.0222   -4.7491    1.3636 C   0  0  0  0  0  0
    0.3867   -4.2839    0.2133 C   0  0  0  0  0  0
   -0.0514   -2.9621    0.1435 C   0  0  0  0  0  0
    0.1494   -2.0910    1.2211 C   0  0  0  0  0  0
   -0.3226   -0.6380    1.1539 C   0  0  0  0  0  0
    0.1763    0.1277   -0.1033 C   0  0  2  0  0  0
    1.6408    0.1599   -0.1831 N   0  0  0  0  0  0
   -0.3610    1.5723   -0.1063 C   0  0  0  0  0  0
    0.0583    2.3857    0.7194 O   0  0  0  0  0  0
   -1.3130    1.8546   -1.0114 N   0  0  0  0  0  0
   -1.9097    3.1755   -1.1831 C   0  0  0  0  0  0
   -0.9472    4.1815   -1.6665 C   0  0  0  0  0  0
   -0.1917    4.9714   -2.0464 N   0  0  0  0  0  0
    2.3983   -0.4954   -1.0812 C   0  0  0  0  0  0
    1.9471   -1.2184   -1.9710 O   0  0  0  0  0  0
    3.8174   -0.2825   -0.9113 C   0  0  0  0  0  0
    1.9186   -4.3933    3.7017 C   0  0  0  0  0  0
    4.8118   -0.5675   -1.8259 N   0  0  0  0  0  0
    6.0446   -0.3508   -1.3440 N   0  0  0  0  0  0
    5.8960    0.0666   -0.1027 C   0  0  0  0  0  0
    4.5306    0.1034    0.2192 C   0  0  0  0  0  0
    4.6890   -1.0841   -3.1856 C   0  0  0  0  0  0
    7.0942    0.4205    0.7933 C   0  0  0  0  0  0
    7.0211    1.9194    1.1625 C   0  0  0  0  0  0
    8.4571    0.1479    0.1037 C   0  0  0  0  0  0
    7.0281   -0.4233    2.0870 C   0  0  0  0  0  0
    0.9372   -1.9079    3.2163 H   0  0  0  0  0  0
    1.3592   -5.7747    1.4065 H   0  0  0  0  0  0
    0.2338   -4.9479   -0.6246 H   0  0  0  0  0  0
   -0.5445   -2.6208   -0.7545 H   0  0  0  0  0  0
   -1.4132   -0.6415    1.1972 H   0  0  0  0  0  0
    0.0095   -0.1138    2.0530 H   0  0  0  0  0  0
   -0.2258   -0.3774   -0.9840 H   0  0  0  0  0  0
    2.0968    0.7443    0.5024 H   0  0  0  0  0  0
   -1.5933    1.1399   -1.6677 H   0  0  0  0  0  0
   -2.3499    3.5277   -0.2487 H   0  0  0  0  0  0
   -2.7178    3.1065   -1.9112 H   0  0  0  0  0  0
    2.5350   -5.2683    3.4920 H   0  0  0  0  0  0
    1.1925   -4.6444    4.4751 H   0  0  0  0  0  0
    2.5846   -3.6252    4.0964 H   0  0  0  0  0  0
    4.1144    0.3806    1.1768 H   0  0  0  0  0  0
    3.9219   -0.5238   -3.7208 H   0  0  0  0  0  0
    4.4073   -2.1365   -3.1443 H   0  0  0  0  0  0
    5.6313   -0.9870   -3.7279 H   0  0  0  0  0  0
    7.8409    2.2144    1.8191 H   0  0  0  0  0  0
    6.0898    2.1636    1.6758 H   0  0  0  0  0  0
    7.0695    2.5508    0.2739 H   0  0  0  0  0  0
    8.5698    0.7345   -0.8093 H   0  0  0  0  0  0
    8.5616   -0.9018   -0.1750 H   0  0  0  0  0  0
    9.2966    0.3963    0.7546 H   0  0  0  0  0  0
    7.8523   -0.1913    2.7631 H   0  0  0  0  0  0
    7.0747   -1.4911    1.8674 H   0  0  0  0  0  0
    6.1015   -0.2515    2.6364 H   0  0  0  0  0  0
  1  6  2  0  0  0
  1  2  1  0  0  0
  1 29  1  0  0  0
  2 19  1  0  0  0
  2  3  2  0  0  0
  3  4  1  0  0  0
  3 30  1  0  0  0
  4  5  2  0  0  0
  4 31  1  0  0  0
  5  6  1  0  0  0
  5 32  1  0  0  0
  6  7  1  0  0  0
  7  8  1  0  0  0
  7 33  1  0  0  0
  7 34  1  0  0  0
  8  9  1  0  0  0
  8 10  1  0  0  0
  8 35  1  0  0  0
  9 16  1  0  0  0
  9 36  1  0  0  0
 10 11  2  0  0  0
 10 12  1  0  0  0
 12 13  1  0  0  0
 12 37  1  0  0  0
 13 14  1  0  0  0
 13 38  1  0  0  0
 13 39  1  0  0  0
 14 15  3  0  0  0
 16 17  2  0  0  0
 16 18  1  0  0  0
 18 20  1  0  0  0
 18 23  2  0  0  0
 19 40  1  0  0  0
 19 41  1  0  0  0
 19 42  1  0  0  0
 20 21  1  0  0  0
 20 24  1  0  0  0
 21 22  2  0  0  0
 22 23  1  0  0  0
 22 25  1  0  0  0
 23 43  1  0  0  0
 24 44  1  0  0  0
 24 45  1  0  0  0
 24 46  1  0  0  0
 25 26  1  0  0  0
 25 27  1  0  0  0
 25 28  1  0  0  0
 26 47  1  0  0  0
 26 48  1  0  0  0
 26 49  1  0  0  0
 27 50  1  0  0  0
 27 51  1  0  0  0
 27 52  1  0  0  0
 28 53  1  0  0  0
 28 54  1  0  0  0
 28 55  1  0  0  0
M  END
> <chembl_id>
CHEMBL565079

> <chembl_pref_name>
None

> <i_m_ct_stereo_status>
1

> <s_m_source_file>
sdf/inactives_sanitized.sdf

> <i_m_source_file_index>
380

> <i_lp_mmshare_version>
49012

> <i_f3d_flags>
0

> <s_epik_input>
W2NIXTFbY0hdW2NIXWMoW2NIXWMxW0NIM10pW0NIMl1bQ0BASF0oQyg9TylbTkhdW0NIMl1DI04pW05IXUMoPU8pYzJuKFtDSDNdKW5jKFtjSF0yKUMoW0NIM10pKFtDSDNdKVtDSDNd

> <s_epik_cmdline>
J2VwaWtfcHl0aG9uJywgJy1waHQnLCAnMC41JywgJy1waCcsICc3LjUnLCAnLW50JywgJy1tYScsICcyMDAnLCAnLWltYWUnLCAnPGluZmlsZS5tYWU+JywgJy1vbWFlJywgJzxvdXRmaWxlLm1hZT4n

> <r_lp_tautomer_probability>
1

> <r_epik_Ionization_Penalty>
  0.0000

> <r_epik_Ionization_Penalty_Charging>
  0.0000

> <r_epik_Ionization_Penalty_Neutral>
  0.0000

> <r_epik_State_Penalty>
 -0.0000

> <r_epik_Charging_Adjusted_Penalty>
0

> <i_epik_Tot_Q>
0

> <i_epik_Tot_abs_Q>
0

> <s_lp_Force_Field>
OPLS3e

> <r_lp_Energy>
16.131844

> <b_lp_Chiralities_Consistent>
1

> <s_lp_Variant>
sdf/inactives_sanitized.sdf:380-1

$$$$
sdf/inactives_sanitized.sdf:381
                    3D
 Schrodinger Suite 2020-1.
 71 74  0  0  1  0            999 V2000
   -0.9337   -2.5819    5.0555 C   0  0  0  0  0  0
   -0.3353   -2.7330    3.8459 O   0  0  0  0  0  0
   -0.6798   -1.6577    3.0848 C   0  0  0  0  0  0
   -1.5428   -0.8394    3.8131 C   0  0  0  0  0  0
   -1.6880   -1.4214    5.0736 C   0  0  0  0  0  0
   -0.2095   -1.6040    1.7268 C   0  0  0  0  0  0
   -0.4071   -0.4137    1.1244 N   0  0  0  0  0  0
    0.3271   -2.5787    1.1983 O   0  0  0  0  0  0
   -0.0358   -0.0196   -0.2431 C   0  0  1  0  0  0
    1.4887    0.2089   -0.3577 C   0  0  0  0  0  0
    1.8820    1.4650   -0.6336 N   0  0  0  0  0  0
    2.2659   -0.7391   -0.2374 O   0  0  0  0  0  0
    3.2796    1.8989   -0.7667 C   0  0  2  0  0  0
    3.4085    3.3374   -0.2115 C   0  0  0  0  0  0
    4.7854    3.8136    0.2705 C   0  0  0  0  0  0
    3.7703    1.8012   -2.2344 C   0  0  0  0  0  0
    5.9464    3.1871   -0.4226 N   0  0  3  0  0  0
    5.3004    1.8486   -2.4416 C   0  0  0  0  0  0
    6.0479    3.0897   -1.9083 C   0  0  1  0  0  0
    5.6736    4.4073   -2.6157 C   0  0  0  0  0  0
    2.4466    4.1054   -0.1398 O   0  0  0  0  0  0
    7.0936    2.8361    1.9297 O   0  0  0  0  0  0
    8.2748    1.9819   -0.1572 O   0  0  0  0  0  0
    7.4421    2.9891    0.5117 S   0  0  0  0  0  0
    8.2747    4.5644    0.3462 C   0  0  0  0  0  0
    7.7254    5.5896    1.0506 N   0  0  0  0  0  0
    8.3041    6.8125    0.9388 C   0  0  0  0  0  0
    9.4191    7.0547    0.1337 C   0  0  0  0  0  0
    9.9622    5.9907   -0.5901 C   0  0  0  0  0  0
    9.3847    4.7231   -0.4899 C   0  0  0  0  0  0
   -0.6100   -0.9769   -1.3354 C   0  0  0  0  0  0
   -0.6838   -0.4725   -2.8129 C   0  0  0  0  0  0
    0.6939   -0.3017   -3.4893 C   0  0  0  0  0  0
    0.5050   -0.5657   -4.9900 C   0  0  0  0  0  0
   -0.8279   -1.3099   -5.1365 C   0  0  0  0  0  0
   -1.3399   -1.5449   -3.7107 C   0  0  0  0  0  0
   -1.4990    0.8449   -2.8910 C   0  0  0  0  0  0
   -0.7443   -3.3582    5.7823 H   0  0  0  0  0  0
   -2.0112    0.0724    3.4725 H   0  0  0  0  0  0
   -2.2806   -1.0479    5.8957 H   0  0  0  0  0  0
   -0.8529    0.3148    1.6621 H   0  0  0  0  0  0
   -0.5372    0.9418   -0.3544 H   0  0  0  0  0  0
    1.1785    2.1736   -0.7852 H   0  0  0  0  0  0
    3.9085    1.2603   -0.1411 H   0  0  0  0  0  0
    4.8628    4.8940    0.1441 H   0  0  0  0  0  0
    4.8675    3.6391    1.3426 H   0  0  0  0  0  0
    3.4285    0.8547   -2.6556 H   0  0  0  0  0  0
    3.2920    2.5704   -2.8437 H   0  0  0  0  0  0
    5.5072    1.7473   -3.5080 H   0  0  0  0  0  0
    5.7368    0.9592   -1.9833 H   0  0  0  0  0  0
    7.0956    2.9012   -2.1440 H   0  0  0  0  0  0
    5.8355    4.3298   -3.6912 H   0  0  0  0  0  0
    6.2884    5.2325   -2.2542 H   0  0  0  0  0  0
    4.6295    4.6797   -2.4634 H   0  0  0  0  0  0
    7.8547    7.6109    1.5109 H   0  0  0  0  0  0
    9.8512    8.0427    0.0705 H   0  0  0  0  0  0
   10.8221    6.1475   -1.2247 H   0  0  0  0  0  0
    9.7908    3.8928   -1.0490 H   0  0  0  0  0  0
   -0.0603   -1.9197   -1.3115 H   0  0  0  0  0  0
   -1.6233   -1.2515   -1.0349 H   0  0  0  0  0  0
    1.1436    0.6707   -3.2888 H   0  0  0  0  0  0
    1.3937   -1.0392   -3.0918 H   0  0  0  0  0  0
    0.4733    0.3754   -5.5410 H   0  0  0  0  0  0
    1.3357   -1.1460   -5.3941 H   0  0  0  0  0  0
   -1.5388   -0.6991   -5.6949 H   0  0  0  0  0  0
   -0.7133   -2.2481   -5.6809 H   0  0  0  0  0  0
   -2.4285   -1.5520   -3.6363 H   0  0  0  0  0  0
   -1.0292   -2.5406   -3.3877 H   0  0  0  0  0  0
   -1.6980    1.1387   -3.9223 H   0  0  0  0  0  0
   -0.9701    1.6787   -2.4290 H   0  0  0  0  0  0
   -2.4641    0.7478   -2.3921 H   0  0  0  0  0  0
  1  5  2  0  0  0
  1  2  1  0  0  0
  1 38  1  0  0  0
  2  3  1  0  0  0
  3  6  1  0  0  0
  3  4  2  0  0  0
  4  5  1  0  0  0
  4 39  1  0  0  0
  5 40  1  0  0  0
  6  7  1  0  0  0
  6  8  2  0  0  0
  7  9  1  0  0  0
  7 41  1  0  0  0
  9 10  1  0  0  0
  9 31  1  0  0  0
  9 42  1  0  0  0
 10 11  1  0  0  0
 10 12  2  0  0  0
 11 13  1  0  0  0
 11 43  1  0  0  0
 13 14  1  0  0  0
 13 16  1  0  0  0
 13 44  1  0  0  0
 14 21  2  0  0  0
 14 15  1  0  0  0
 15 17  1  0  0  0
 15 45  1  0  0  0
 15 46  1  0  0  0
 16 18  1  0  0  0
 16 47  1  0  0  0
 16 48  1  0  0  0
 17 19  1  0  0  0
 17 24  1  0  0  0
 18 19  1  0  0  0
 18 49  1  0  0  0
 18 50  1  0  0  0
 19 20  1  0  0  0
 19 51  1  0  0  0
 20 52  1  0  0  0
 20 53  1  0  0  0
 20 54  1  0  0  0
 22 24  2  0  0  0
 23 24  2  0  0  0
 24 25  1  0  0  0
 25 26  2  0  0  0
 25 30  1  0  0  0
 26 27  1  0  0  0
 27 28  2  0  0  0
 27 55  1  0  0  0
 28 29  1  0  0  0
 28 56  1  0  0  0
 29 30  2  0  0  0
 29 57  1  0  0  0
 30 58  1  0  0  0
 31 32  1  0  0  0
 31 59  1  0  0  0
 31 60  1  0  0  0
 32 33  1  0  0  0
 32 36  1  0  0  0
 32 37  1  0  0  0
 33 34  1  0  0  0
 33 61  1  0  0  0
 33 62  1  0  0  0
 34 35  1  0  0  0
 34 63  1  0  0  0
 34 64  1  0  0  0
 35 36  1  0  0  0
 35 65  1  0  0  0
 35 66  1  0  0  0
 36 67  1  0  0  0
 36 68  1  0  0  0
 37 69  1  0  0  0
 37 70  1  0  0  0
 37 71  1  0  0  0
M  END
> <chembl_id>
CHEMBL1807695

> <chembl_pref_name>
None

> <i_m_ct_stereo_status>
1

> <s_m_source_file>
sdf/inactives_sanitized.sdf

> <i_m_source_file_index>
381

> <i_lp_mmshare_version>
49012

> <i_f3d_flags>
0

> <s_epik_input>
W2NIXTFbY0hdW2NIXW9jMUMoPU8pW05IXVtDQEhdKFtDSDJdQzIoW0NIM10pW0NIMl1bQ0gyXVtDSDJdW0NIMl0yKUMoPU8pW05IXVtDQEBIXTNDKD1PKVtDSDJdTihbQ0BIXShbQ0gzXSlbQ0gyXVtDSDJdMylTKD1PKSg9TyljNG5bY0hdW2NIXVtjSF1bY0hdNA==

> <s_epik_cmdline>
J2VwaWtfcHl0aG9uJywgJy1waHQnLCAnMC41JywgJy1waCcsICc3LjUnLCAnLW50JywgJy1tYScsICcyMDAnLCAnLWltYWUnLCAnPGluZmlsZS5tYWU+JywgJy1vbWFlJywgJzxvdXRmaWxlLm1hZT4n

> <r_lp_tautomer_probability>
1

> <r_epik_Ionization_Penalty>
  0.0000

> <r_epik_Ionization_Penalty_Charging>
  0.0000

> <r_epik_Ionization_Penalty_Neutral>
  0.0000

> <r_epik_State_Penalty>
 -0.0000

> <r_epik_Charging_Adjusted_Penalty>
0

> <i_epik_Tot_Q>
0

> <i_epik_Tot_abs_Q>
0

> <s_lp_Force_Field>
OPLS3e

> <r_lp_Energy>
41.898049

> <b_lp_Chiralities_Consistent>
1

> <s_lp_Variant>
sdf/inactives_sanitized.sdf:381-1

$$$$
sdf/inactives_sanitized.sdf:382
                    3D
 Schrodinger Suite 2020-1.
 84 88  0  0  1  0            999 V2000
   -2.1370   -0.6414    3.3459 C   0  0  0  0  0  0
   -0.5768   -0.6309    3.4128 C   0  0  0  0  0  0
   -0.1591   -2.1107    3.6837 C   0  0  0  0  0  0
    1.6400    0.0625    2.6913 C   0  0  0  0  0  0
    1.5304    0.2803    4.2159 C   0  0  0  0  0  0
    0.0007    0.3906    4.4216 C   0  0  1  0  0  0
    0.1532    0.0668    2.2208 C   0  0  2  0  0  0
   -0.4561    1.7584    3.8555 C   0  0  0  0  0  0
   -0.3418    1.5399    2.3306 C   0  0  0  0  0  0
   -0.1101   -0.5925    0.8362 C   0  0  0  0  0  0
   -1.6410   -0.7707   -3.3244 N   0  0  0  0  0  0
   -1.3563   -0.1532   -2.1429 C   0  0  0  0  0  0
   -0.1232   -0.4034   -1.6577 N   0  0  0  0  0  0
   -2.1088    0.6687   -1.6121 O   0  0  0  0  0  0
    0.4378    0.1449   -0.4214 C   0  0  2  0  0  0
    1.9716    0.1092   -0.5511 C   0  0  0  0  0  0
    2.5811    1.2929   -0.7489 N   0  0  0  0  0  0
    2.5645   -0.9672   -0.4591 O   0  0  0  0  0  0
    4.0319    1.4955   -0.8741 C   0  0  2  0  0  0
    4.5848    2.1652    0.4028 C   0  0  0  0  0  0
    6.0970    2.0697    0.5990 C   0  0  0  0  0  0
    4.3762    2.2720   -2.1658 C   0  0  0  0  0  0
    6.8702    3.1259   -0.1129 N   0  0  3  0  0  0
    5.8712    2.5990   -2.4123 C   0  0  0  0  0  0
    6.5332    3.6446   -1.4766 C   0  0  1  0  0  0
    5.7254    4.9552   -1.3712 C   0  0  0  0  0  0
    3.8756    2.7264    1.2399 O   0  0  0  0  0  0
    8.6466    2.8411    1.8301 O   0  0  0  0  0  0
    9.4636    3.2265   -0.5460 O   0  0  0  0  0  0
    8.4915    3.4899    0.5224 S   0  0  0  0  0  0
    8.4912    5.2544    0.8236 C   0  0  0  0  0  0
    8.9732    6.0316   -0.1834 N   0  0  0  0  0  0
    8.9612    7.3767   -0.0018 C   0  0  0  0  0  0
    8.4717    7.9824    1.1574 C   0  0  0  0  0  0
    7.9722    7.1671    2.1757 C   0  0  0  0  0  0
    7.9767    5.7803    2.0125 C   0  0  0  0  0  0
   -1.1210   -2.1194   -3.6366 C   0  0  0  0  0  0
   -2.1486   -3.1367   -3.0857 C   0  0  0  0  0  0
   -3.4325   -2.8942   -3.6632 O   0  0  0  0  0  0
   -3.9331   -1.5781   -3.4213 C   0  0  0  0  0  0
   -2.9443   -0.5190   -3.9690 C   0  0  0  0  0  0
   -2.5875    0.3132    3.0817 H   0  0  0  0  0  0
   -2.5624   -0.9308    4.3076 H   0  0  0  0  0  0
   -2.4967   -1.3616    2.6101 H   0  0  0  0  0  0
    0.9146   -2.2828    3.7165 H   0  0  0  0  0  0
   -0.5492   -2.7760    2.9124 H   0  0  0  0  0  0
   -0.5581   -2.4577    4.6377 H   0  0  0  0  0  0
    2.2252    0.8545    2.2251 H   0  0  0  0  0  0
    2.1426   -0.8772    2.4599 H   0  0  0  0  0  0
    1.9520   -0.5582    4.7712 H   0  0  0  0  0  0
    2.0598    1.1760    4.5448 H   0  0  0  0  0  0
   -0.3055    0.2306    5.4561 H   0  0  0  0  0  0
   -1.4802    1.9924    4.1487 H   0  0  0  0  0  0
    0.1684    2.5825    4.2038 H   0  0  0  0  0  0
    0.3556    2.2449    1.8749 H   0  0  0  0  0  0
   -1.3029    1.6869    1.8359 H   0  0  0  0  0  0
   -1.1901   -0.6900    0.7203 H   0  0  0  0  0  0
    0.2533   -1.6216    0.8453 H   0  0  0  0  0  0
    0.4688   -1.0603   -2.1448 H   0  0  0  0  0  0
    0.1183    1.1883   -0.3756 H   0  0  0  0  0  0
    2.0098    2.1227   -0.8172 H   0  0  0  0  0  0
    4.5339    0.5278   -0.9463 H   0  0  0  0  0  0
    6.4387    1.1026    0.2294 H   0  0  0  0  0  0
    6.3430    2.0869    1.6603 H   0  0  0  0  0  0
    3.7888    3.1902   -2.2136 H   0  0  0  0  0  0
    4.0270    1.6780   -3.0122 H   0  0  0  0  0  0
    6.4542    1.6770   -2.3990 H   0  0  0  0  0  0
    5.9586    2.9719   -3.4339 H   0  0  0  0  0  0
    7.4756    3.9409   -1.9389 H   0  0  0  0  0  0
    5.4703    5.3383   -2.3596 H   0  0  0  0  0  0
    6.2894    5.7368   -0.8644 H   0  0  0  0  0  0
    4.7957    4.8230   -0.8179 H   0  0  0  0  0  0
    9.3535    7.9745   -0.8112 H   0  0  0  0  0  0
    8.4781    9.0573    1.2636 H   0  0  0  0  0  0
    7.5833    7.6063    3.0824 H   0  0  0  0  0  0
    7.5869    5.1348    2.7863 H   0  0  0  0  0  0
   -1.1219   -2.1670   -4.7264 H   0  0  0  0  0  0
   -0.0792   -2.2941   -3.3654 H   0  0  0  0  0  0
   -1.8309   -4.1523   -3.3210 H   0  0  0  0  0  0
   -2.2077   -3.0862   -1.9967 H   0  0  0  0  0  0
   -4.9028   -1.4663   -3.9062 H   0  0  0  0  0  0
   -4.1120   -1.4342   -2.3541 H   0  0  0  0  0  0
   -3.2783    0.5186   -3.9175 H   0  0  0  0  0  0
   -2.7680   -0.7024   -5.0299 H   0  0  0  0  0  0
  1  2  1  0  0  0
  1 42  1  0  0  0
  1 43  1  0  0  0
  1 44  1  0  0  0
  2  3  1  0  0  0
  2  7  1  0  0  0
  2  6  1  0  0  0
  3 45  1  0  0  0
  3 46  1  0  0  0
  3 47  1  0  0  0
  4  5  1  0  0  0
  4  7  1  0  0  0
  4 48  1  0  0  0
  4 49  1  0  0  0
  5  6  1  0  0  0
  5 50  1  0  0  0
  5 51  1  0  0  0
  6  8  1  0  0  0
  6 52  1  0  0  0
  7  9  1  0  0  0
  7 10  1  0  0  0
  8  9  1  0  0  0
  8 53  1  0  0  0
  8 54  1  0  0  0
  9 55  1  0  0  0
  9 56  1  0  0  0
 10 15  1  0  0  0
 10 57  1  0  0  0
 10 58  1  0  0  0
 11 12  1  0  0  0
 11 37  1  0  0  0
 11 41  1  0  0  0
 12 13  1  0  0  0
 12 14  2  0  0  0
 13 15  1  0  0  0
 13 59  1  0  0  0
 15 16  1  0  0  0
 15 60  1  0  0  0
 16 17  1  0  0  0
 16 18  2  0  0  0
 17 19  1  0  0  0
 17 61  1  0  0  0
 19 20  1  0  0  0
 19 22  1  0  0  0
 19 62  1  0  0  0
 20 27  2  0  0  0
 20 21  1  0  0  0
 21 23  1  0  0  0
 21 63  1  0  0  0
 21 64  1  0  0  0
 22 24  1  0  0  0
 22 65  1  0  0  0
 22 66  1  0  0  0
 23 25  1  0  0  0
 23 30  1  0  0  0
 24 25  1  0  0  0
 24 67  1  0  0  0
 24 68  1  0  0  0
 25 26  1  0  0  0
 25 69  1  0  0  0
 26 70  1  0  0  0
 26 71  1  0  0  0
 26 72  1  0  0  0
 28 30  2  0  0  0
 29 30  2  0  0  0
 30 31  1  0  0  0
 31 32  2  0  0  0
 31 36  1  0  0  0
 32 33  1  0  0  0
 33 34  2  0  0  0
 33 73  1  0  0  0
 34 35  1  0  0  0
 34 74  1  0  0  0
 35 36  2  0  0  0
 35 75  1  0  0  0
 36 76  1  0  0  0
 37 38  1  0  0  0
 37 77  1  0  0  0
 37 78  1  0  0  0
 38 39  1  0  0  0
 38 79  1  0  0  0
 38 80  1  0  0  0
 39 40  1  0  0  0
 40 41  1  0  0  0
 40 81  1  0  0  0
 40 82  1  0  0  0
 41 83  1  0  0  0
 41 84  1  0  0  0
M  END
> <chembl_id>
CHEMBL1807702

> <chembl_pref_name>
None

> <i_m_ct_stereo_status>
1

> <s_m_source_file>
sdf/inactives_sanitized.sdf

> <i_m_source_file_index>
382

> <i_lp_mmshare_version>
49012

> <i_f3d_flags>
0

> <s_epik_input>
W0NIMl0xW0NIMl1PW0NIMl1bQ0gyXU4xQyg9TylbTkhdW0NAQEhdKFtDSDJdW0NAQF0yM0MoW0NIM10pKFtDSDNdKVtDQEBIXShbQ0gyXVtDSDJdMilbQ0gyXVtDSDJdMylDKD1PKVtOSF1bQ0BASF00Qyg9TylbQ0gyXU4oW0NASF0oW0NIM10pW0NIMl1bQ0gyXTQpUyg9TykoPU8pYzVuW2NIXVtjSF1bY0hdW2NIXTU=

> <s_epik_cmdline>
J2VwaWtfcHl0aG9uJywgJy1waHQnLCAnMC41JywgJy1waCcsICc3LjUnLCAnLW50JywgJy1tYScsICcyMDAnLCAnLWltYWUnLCAnPGluZmlsZS5tYWU+JywgJy1vbWFlJywgJzxvdXRmaWxlLm1hZT4n

> <r_lp_tautomer_probability>
1

> <r_epik_Ionization_Penalty>
  0.0000

> <r_epik_Ionization_Penalty_Charging>
  0.0000

> <r_epik_Ionization_Penalty_Neutral>
  0.0000

> <r_epik_State_Penalty>
 -0.0000

> <r_epik_Charging_Adjusted_Penalty>
0

> <i_epik_Tot_Q>
0

> <i_epik_Tot_abs_Q>
0

> <s_lp_Force_Field>
OPLS3e

> <r_lp_Energy>
80.903826

> <b_lp_Chiralities_Consistent>
1

> <s_lp_Variant>
sdf/inactives_sanitized.sdf:382-1

$$$$
sdf/inactives_sanitized.sdf:383
                    3D
 Schrodinger Suite 2020-1.
 65 69  0  0  1  0            999 V2000
   -1.9038    1.6277   -0.2497 C   0  0  0  0  0  0
   -0.5147    1.5162   -0.0657 C   0  0  0  0  0  0
    0.2370    2.6832    0.1443 C   0  0  0  0  0  0
   -0.3777    3.9320    0.1690 C   0  0  0  0  0  0
   -1.7588    4.0613   -0.0107 C   0  0  0  0  0  0
   -2.5059    2.8932   -0.2180 C   0  0  0  0  0  0
   -2.4080    5.4064    0.0161 C   0  0  0  0  0  0
   -1.7677    6.5348   -0.5214 C   0  0  0  0  0  0
   -4.3176    6.6305    0.6493 C   0  0  0  0  0  0
   -3.6477    5.4530    0.5805 N   0  0  0  0  0  0
   -3.7631    7.8177    0.1418 C   0  0  0  0  0  0
   -2.4736    7.7413   -0.4449 C   0  0  0  0  0  0
   -2.2028    9.0348   -0.8442 N   0  0  0  0  0  0
   -3.3028    9.7836   -0.4877 C   0  0  0  0  0  0
   -4.2502    9.1001    0.1001 N   0  0  0  0  0  0
   -2.7558    0.3754   -0.4855 C   0  0  0  0  0  0
   -4.0514    0.6528   -0.6463 F   0  0  0  0  0  0
   -2.3334   -0.2566   -1.5814 F   0  0  0  0  0  0
   -2.6393   -0.4512    0.5546 F   0  0  0  0  0  0
    0.0401    0.2486   -0.1015 O   0  0  0  0  0  0
    1.4441    0.0822    0.0723 C   0  0  0  0  0  0
    1.7703   -1.4171   -0.0397 C   0  0  0  0  0  0
   -5.6286    6.5648    1.2780 C   0  0  0  0  0  0
   -6.6709    6.5131    1.7781 N   0  0  0  0  0  0
   -1.0037    9.5161   -1.5080 C   0  0  0  0  0  0
    3.2794   -1.7559    0.0134 C   0  0  2  0  0  0
    3.5212   -3.2478   -0.2985 C   0  0  0  0  0  0
    5.0244   -3.5740   -0.3563 C   0  0  0  0  0  0
    5.6612   -3.2143    1.0089 N   0  3  2  0  0  0
    5.4329   -1.7233    1.3710 C   0  0  0  0  0  0
    3.9190   -1.4462    1.3854 C   0  0  0  0  0  0
    7.1704   -3.5679    1.0035 C   0  0  0  0  0  0
    7.7355   -3.6379    2.4127 C   0  0  0  0  0  0
    7.1122   -3.6087    3.5680 N   0  0  0  0  0  0
    8.0988   -3.7223    4.5430 N   0  0  0  0  0  0
    9.2331   -3.8186    3.8958 C   0  0  0  0  0  0
    9.0782   -3.7755    2.5491 O   0  0  0  0  0  0
   10.6244   -3.9650    4.4617 C   0  0  0  0  0  0
    1.3051    2.6439    0.2933 H   0  0  0  0  0  0
    0.2340    4.8058    0.3402 H   0  0  0  0  0  0
   -3.5732    2.9775   -0.3641 H   0  0  0  0  0  0
   -0.7894    6.4769   -0.9756 H   0  0  0  0  0  0
   -3.3247   10.8428   -0.7008 H   0  0  0  0  0  0
    1.9860    0.6375   -0.6955 H   0  0  0  0  0  0
    1.7404    0.4653    1.0496 H   0  0  0  0  0  0
    1.2401   -1.9619    0.7431 H   0  0  0  0  0  0
    1.3611   -1.7786   -0.9848 H   0  0  0  0  0  0
   -1.0767   10.5886   -1.6927 H   0  0  0  0  0  0
   -0.8831    8.9935   -2.4576 H   0  0  0  0  0  0
   -0.1376    9.3168   -0.8761 H   0  0  0  0  0  0
    3.7955   -1.1678   -0.7485 H   0  0  0  0  0  0
    3.0124   -3.8803    0.4312 H   0  0  0  0  0  0
    3.0598   -3.5037   -1.2535 H   0  0  0  0  0  0
    5.1937   -4.6394   -0.5185 H   0  0  0  0  0  0
    5.5498   -3.0002   -1.1221 H   0  0  0  0  0  0
    5.8781   -1.5448    2.3496 H   0  0  0  0  0  0
    5.9564   -1.1241    0.6239 H   0  0  0  0  0  0
    3.7508   -0.4042    1.6567 H   0  0  0  0  0  0
    3.4274   -2.0182    2.1743 H   0  0  0  0  0  0
    7.2524   -4.5355    0.5066 H   0  0  0  0  0  0
    7.6506   -2.8163    0.3746 H   0  0  0  0  0  0
   10.6241   -3.9846    5.5519 H   0  0  0  0  0  0
   11.2679   -3.1405    4.1553 H   0  0  0  0  0  0
   11.0985   -4.8866    4.1243 H   0  0  0  0  0  0
    5.2032   -3.7817    1.7089 H   0  0  0  0  0  0
  1  6  2  0  0  0
  1  2  1  0  0  0
  1 16  1  0  0  0
  2 20  1  0  0  0
  2  3  2  0  0  0
  3  4  1  0  0  0
  3 39  1  0  0  0
  4  5  2  0  0  0
  4 40  1  0  0  0
  5  7  1  0  0  0
  5  6  1  0  0  0
  6 41  1  0  0  0
  7 10  1  0  0  0
  7  8  2  0  0  0
  8 12  1  0  0  0
  8 42  1  0  0  0
  9 11  1  0  0  0
  9 10  2  0  0  0
  9 23  1  0  0  0
 11 12  2  0  0  0
 11 15  1  0  0  0
 12 13  1  0  0  0
 13 25  1  0  0  0
 13 14  1  0  0  0
 14 15  2  0  0  0
 14 43  1  0  0  0
 16 18  1  0  0  0
 16 19  1  0  0  0
 16 17  1  0  0  0
 20 21  1  0  0  0
 21 22  1  0  0  0
 21 44  1  0  0  0
 21 45  1  0  0  0
 22 26  1  0  0  0
 22 46  1  0  0  0
 22 47  1  0  0  0
 23 24  3  0  0  0
 25 48  1  0  0  0
 25 49  1  0  0  0
 25 50  1  0  0  0
 26 27  1  0  0  0
 26 31  1  0  0  0
 26 51  1  0  0  0
 27 28  1  0  0  0
 27 52  1  0  0  0
 27 53  1  0  0  0
 28 29  1  0  0  0
 28 54  1  0  0  0
 28 55  1  0  0  0
 29 30  1  0  0  0
 29 32  1  0  0  0
 29 65  1  0  0  0
 30 31  1  0  0  0
 30 56  1  0  0  0
 30 57  1  0  0  0
 31 58  1  0  0  0
 31 59  1  0  0  0
 32 33  1  0  0  0
 32 60  1  0  0  0
 32 61  1  0  0  0
 33 34  2  0  0  0
 33 37  1  0  0  0
 34 35  1  0  0  0
 35 36  2  0  0  0
 36 37  1  0  0  0
 36 38  1  0  0  0
 38 62  1  0  0  0
 38 63  1  0  0  0
 38 64  1  0  0  0
M  CHG  1  29   1
M  END
> <chembl_id>
CHEMBL1669279

> <chembl_pref_name>
None

> <s_m_source_file>
sdf/inactives_sanitized.sdf

> <i_m_source_file_index>
383

> <i_lp_mmshare_version>
49012

> <i_m_ct_stereo_status>
1

> <i_f3d_flags>
0

> <s_epik_input>
bjFbY0hdbihbQ0gzXSljKGMxMilbY0hdYyhuYzJDI04pLWMoW2NIXTMpW2NIXVtjSF1jKGMzQyhGKShGKUYpT1tDSDJdW0NIMl1bQ0hdNFtDSDJdW0NIMl1OKFtDSDJdW0NIMl00KVtDSDJdYzVubmMobzUpW0NIM10=

> <s_epik_cmdline>
J2VwaWtfcHl0aG9uJywgJy1waHQnLCAnMC41JywgJy1waCcsICc3LjUnLCAnLW50JywgJy1tYScsICcyMDAnLCAnLWltYWUnLCAnPGluZmlsZS5tYWU+JywgJy1vbWFlJywgJzxvdXRmaWxlLm1hZT4n

> <r_lp_tautomer_probability>
1

> <r_epik_Ionization_Penalty>
  0.0001

> <r_epik_Ionization_Penalty_Charging>
  0.0001

> <r_epik_Ionization_Penalty_Neutral>
  0.0000

> <r_epik_State_Penalty>
 -0.0000

> <r_epik_Charging_Adjusted_Penalty>
8.14088841336406e-05

> <i_epik_Tot_Q>
1

> <i_epik_Tot_abs_Q>
1

> <s_lp_Force_Field>
OPLS3e

> <r_lp_Energy>
44.048946

> <b_lp_Chiralities_Consistent>
1

> <s_lp_Variant>
sdf/inactives_sanitized.sdf:383-1

$$$$
sdf/inactives_sanitized.sdf:384
                    3D
 Schrodinger Suite 2020-1.
 49 50  0  0  1  0            999 V2000
   -0.4438    2.0639   -1.4085 C   0  0  0  0  0  0
   -0.5824    1.3094   -0.2557 N   0  0  0  0  0  0
   -0.9590    1.7557    1.0078 C   0  0  0  0  0  0
   -1.1480    3.1342    1.0474 N   0  0  0  0  0  0
   -1.1090    3.9736   -0.0687 N   0  0  0  0  0  0
   -0.7628    3.4723   -1.1921 C   0  0  0  0  0  0
   -1.0633    1.0174    1.9931 O   0  0  0  0  0  0
   -0.6992    4.3813   -2.3172 C   0  0  0  0  0  0
   -0.6220    5.1318   -3.1951 N   0  0  0  0  0  0
   -0.0945    1.6229   -2.5070 O   0  0  0  0  0  0
   -0.3058   -0.1448   -0.4021 C   0  0  0  0  0  0
   -1.3855    3.7965    2.3596 C   0  0  0  0  0  0
    1.1905   -0.5296   -0.3451 C   0  0  0  0  0  0
    1.8734   -0.2117    0.9997 C   0  0  0  0  0  0
    3.3880   -0.5191    0.9529 N   0  3  0  0  0  0
    4.1069    0.0526    2.1913 C   0  0  0  0  0  0
    3.7101   -2.0188    0.7845 C   0  0  0  0  0  0
   -2.5642    4.8122    2.3110 C   0  0  0  0  0  0
   -3.2932    5.0384    3.6526 C   0  0  0  0  0  0
   -0.0448    4.3454    2.9258 C   0  0  0  0  0  0
   -2.5303    5.8309    4.7274 C   0  0  0  0  0  0
   -0.0865    5.4475    4.0024 C   0  0  0  0  0  0
   -1.1429    5.2850    5.1092 C   0  0  0  0  0  0
   -0.7346   -0.5129   -1.3365 H   0  0  0  0  0  0
   -0.8326   -0.7097    0.3690 H   0  0  0  0  0  0
   -1.7195    3.0510    3.0849 H   0  0  0  0  0  0
    1.2490   -1.6011   -0.5326 H   0  0  0  0  0  0
    1.7304   -0.0546   -1.1652 H   0  0  0  0  0  0
    1.8144    0.8547    1.2211 H   0  0  0  0  0  0
    1.4612   -0.7796    1.8357 H   0  0  0  0  0  0
    3.7067   -0.4521    3.0723 H   0  0  0  0  0  0
    3.9098    1.1251    2.2177 H   0  0  0  0  0  0
    5.1735   -0.1390    2.0675 H   0  0  0  0  0  0
    3.2422   -2.5554    1.6113 H   0  0  0  0  0  0
    4.7958   -2.1232    0.8038 H   0  0  0  0  0  0
    3.3202   -2.3414   -0.1801 H   0  0  0  0  0  0
   -2.2122    5.7714    1.9278 H   0  0  0  0  0  0
   -3.3065    4.4684    1.5882 H   0  0  0  0  0  0
   -4.2272    5.5648    3.4500 H   0  0  0  0  0  0
   -3.5951    4.0743    4.0645 H   0  0  0  0  0  0
    0.4945    3.4963    3.3497 H   0  0  0  0  0  0
    0.5992    4.6845    2.1124 H   0  0  0  0  0  0
   -2.4319    6.8688    4.4049 H   0  0  0  0  0  0
   -3.1480    5.8667    5.6260 H   0  0  0  0  0  0
    0.8995    5.4971    4.4669 H   0  0  0  0  0  0
   -0.2165    6.4173    3.5194 H   0  0  0  0  0  0
   -0.8015    5.8324    5.9890 H   0  0  0  0  0  0
   -1.2131    4.2422    5.4226 H   0  0  0  0  0  0
    3.7651   -0.0363    0.1487 H   0  0  0  0  0  0
  1  6  1  0  0  0
  1  2  1  0  0  0
  1 10  2  0  0  0
  2  3  1  0  0  0
  2 11  1  0  0  0
  3  7  2  0  0  0
  3  4  1  0  0  0
  4 12  1  0  0  0
  4  5  1  0  0  0
  5  6  2  0  0  0
  6  8  1  0  0  0
  8  9  3  0  0  0
 11 13  1  0  0  0
 11 24  1  0  0  0
 11 25  1  0  0  0
 12 18  1  0  0  0
 12 20  1  0  0  0
 12 26  1  0  0  0
 13 14  1  0  0  0
 13 27  1  0  0  0
 13 28  1  0  0  0
 14 15  1  0  0  0
 14 29  1  0  0  0
 14 30  1  0  0  0
 15 16  1  0  0  0
 15 17  1  0  0  0
 15 49  1  0  0  0
 16 31  1  0  0  0
 16 32  1  0  0  0
 16 33  1  0  0  0
 17 34  1  0  0  0
 17 35  1  0  0  0
 17 36  1  0  0  0
 18 19  1  0  0  0
 18 37  1  0  0  0
 18 38  1  0  0  0
 19 21  1  0  0  0
 19 39  1  0  0  0
 19 40  1  0  0  0
 20 22  1  0  0  0
 20 41  1  0  0  0
 20 42  1  0  0  0
 21 23  1  0  0  0
 21 43  1  0  0  0
 21 44  1  0  0  0
 22 23  1  0  0  0
 22 45  1  0  0  0
 22 46  1  0  0  0
 23 47  1  0  0  0
 23 48  1  0  0  0
M  CHG  1  15   1
M  END
> <chembl_id>
CHEMBL1082526

> <chembl_pref_name>
None

> <s_m_source_file>
sdf/inactives_sanitized.sdf

> <i_m_source_file_index>
384

> <i_lp_mmshare_version>
49012

> <i_m_ct_stereo_status>
1

> <i_f3d_flags>
0

> <s_epik_input>
W0NIM11OKFtDSDNdKVtDSDJdW0NIMl1bQ0gyXW4oYzE9TyljKD1PKW4obmMxQyNOKVtDSF0yW0NIMl1bQ0gyXVtDSDJdW0NIMl1bQ0gyXVtDSDJdMg==

> <s_epik_cmdline>
J2VwaWtfcHl0aG9uJywgJy1waHQnLCAnMC41JywgJy1waCcsICc3LjUnLCAnLW50JywgJy1tYScsICcyMDAnLCAnLWltYWUnLCAnPGluZmlsZS5tYWU+JywgJy1vbWFlJywgJzxvdXRmaWxlLm1hZT4n

> <r_lp_tautomer_probability>
1

> <r_epik_Ionization_Penalty>
  0.0064

> <r_epik_Ionization_Penalty_Charging>
  0.0064

> <r_epik_Ionization_Penalty_Neutral>
  0.0000

> <r_epik_State_Penalty>
 -0.0000

> <r_epik_Charging_Adjusted_Penalty>
0.00637144855269159

> <i_epik_Tot_Q>
1

> <i_epik_Tot_abs_Q>
1

> <s_lp_Force_Field>
OPLS3e

> <r_lp_Energy>
50.538924

> <b_lp_Chiralities_Consistent>
1

> <s_lp_Variant>
sdf/inactives_sanitized.sdf:384-1

$$$$
sdf/inactives_sanitized.sdf:385
                    3D
 Schrodinger Suite 2020-1.
 36 37  0  0  1  0            999 V2000
   -0.8434    5.2394    2.7948 C   0  0  0  0  0  0
   -1.9523    5.7480    2.1068 C   0  0  0  0  0  0
   -2.3731    5.1357    0.9261 C   0  0  0  0  0  0
   -1.6999    4.0200    0.4295 C   0  0  0  0  0  0
   -0.5929    3.4972    1.1190 C   0  0  0  0  0  0
   -0.1703    4.1225    2.2960 C   0  0  0  0  0  0
    0.1634    2.3869    0.6995 N   0  0  0  0  0  0
   -0.1273    1.4448   -0.2290 C   0  0  0  0  0  0
   -0.2806    5.9686    4.2590 Cl  0  0  0  0  0  0
   -2.8167    7.1297    2.6861 Cl  0  0  0  0  0  0
    0.9182    0.3387   -0.5009 C   0  0  0  0  0  0
   -1.1873    1.3928   -0.8527 O   0  0  0  0  0  0
    2.1945    0.5002    0.1823 N   0  0  0  0  0  0
    2.6364   -0.3535    1.2241 C   0  0  0  0  0  0
    3.0391    1.4062   -0.3597 C   0  0  0  0  0  0
    3.7164    2.2171   -0.8322 N   0  0  0  0  0  0
    3.8986   -0.1664    1.7108 N   0  0  0  0  0  0
    4.3128   -0.9817    2.7157 C   0  0  0  0  0  0
    3.4962   -1.9797    3.2520 C   0  0  0  0  0  0
    2.2179   -2.1038    2.7034 C   0  0  0  0  0  0
    1.7772   -1.3019    1.6987 N   0  0  0  0  0  0
    1.2352   -3.1457    3.2018 C   0  0  0  0  0  0
    5.7213   -0.7449    3.2257 C   0  0  0  0  0  0
   -3.2230    5.5277    0.3868 H   0  0  0  0  0  0
   -2.0510    3.5951   -0.4969 H   0  0  0  0  0  0
    0.6855    3.7405    2.8352 H   0  0  0  0  0  0
    1.0448    2.2793    1.1803 H   0  0  0  0  0  0
    0.4174   -0.6095   -0.3023 H   0  0  0  0  0  0
    1.0574    0.2909   -1.5824 H   0  0  0  0  0  0
    3.8359   -2.6221    4.0515 H   0  0  0  0  0  0
    1.6979   -3.8200    3.9235 H   0  0  0  0  0  0
    0.8603   -3.7477    2.3729 H   0  0  0  0  0  0
    0.3855   -2.6632    3.6858 H   0  0  0  0  0  0
    5.9656   -1.4091    4.0556 H   0  0  0  0  0  0
    5.8332    0.2829    3.5732 H   0  0  0  0  0  0
    6.4475   -0.9175    2.4305 H   0  0  0  0  0  0
  1  2  2  0  0  0
  1  6  1  0  0  0
  1  9  1  0  0  0
  2  3  1  0  0  0
  2 10  1  0  0  0
  3  4  2  0  0  0
  3 24  1  0  0  0
  4  5  1  0  0  0
  4 25  1  0  0  0
  5  6  2  0  0  0
  5  7  1  0  0  0
  6 26  1  0  0  0
  7  8  1  0  0  0
  7 27  1  0  0  0
  8 11  1  0  0  0
  8 12  2  0  0  0
 11 13  1  0  0  0
 11 28  1  0  0  0
 11 29  1  0  0  0
 13 14  1  0  0  0
 13 15  1  0  0  0
 14 17  2  0  0  0
 14 21  1  0  0  0
 15 16  3  0  0  0
 17 18  1  0  0  0
 18 19  2  0  0  0
 18 23  1  0  0  0
 19 20  1  0  0  0
 19 30  1  0  0  0
 20 21  2  0  0  0
 20 22  1  0  0  0
 22 31  1  0  0  0
 22 32  1  0  0  0
 22 33  1  0  0  0
 23 34  1  0  0  0
 23 35  1  0  0  0
 23 36  1  0  0  0
M  END
> <chembl_id>
CHEMBL2316611

> <chembl_pref_name>
None

> <s_m_source_file>
sdf/inactives_sanitized.sdf

> <i_m_source_file_index>
385

> <i_lp_mmshare_version>
49012

> <i_m_ct_stereo_status>
1

> <i_f3d_flags>
0

> <s_epik_input>
Q2xjMWMoQ2wpW2NIXVtjSF1jKFtjSF0xKVtOSF1DKD1PKVtDSDJdTihDI04pYzJuYyhbQ0gzXSlbY0hdYyhuMilbQ0gzXQ==

> <s_epik_cmdline>
J2VwaWtfcHl0aG9uJywgJy1waHQnLCAnMC41JywgJy1waCcsICc3LjUnLCAnLW50JywgJy1tYScsICcyMDAnLCAnLWltYWUnLCAnPGluZmlsZS5tYWU+JywgJy1vbWFlJywgJzxvdXRmaWxlLm1hZT4n

> <r_lp_tautomer_probability>
1

> <r_epik_Ionization_Penalty>
  0.0016

> <r_epik_Ionization_Penalty_Charging>
  0.0000

> <r_epik_Ionization_Penalty_Neutral>
  0.0016

> <r_epik_State_Penalty>
 -0.0000

> <r_epik_Charging_Adjusted_Penalty>
0

> <i_epik_Tot_Q>
0

> <i_epik_Tot_abs_Q>
0

> <s_lp_Force_Field>
OPLS3e

> <r_lp_Energy>
28.393929

> <b_lp_Chiralities_Consistent>
1

> <s_lp_Variant>
sdf/inactives_sanitized.sdf:385-1

$$$$
sdf/inactives_sanitized.sdf:386
                    3D
 Schrodinger Suite 2020-1.
 32 33  0  0  1  0            999 V2000
    4.2082    0.9315   -0.8974 C   0  0  0  0  0  0
    3.4717    0.0154   -1.5544 N   0  0  1  0  0  0
   -0.8442    0.9335   -0.2057 C   0  0  0  0  0  0
    4.8362    1.6880   -0.2870 N   0  0  0  0  0  0
    0.0085   -0.0777    0.0519 N   0  0  0  0  0  0
    2.0129    0.0769   -1.4755 C   0  0  2  0  0  0
   -0.4635    2.0636   -0.5198 O   0  0  0  0  0  0
    1.4669    0.0068   -0.0287 C   0  0  0  0  0  0
   -2.3191    0.6245   -0.0629 C   0  0  0  0  0  0
    3.7677   -0.2162   -2.9604 C   0  0  0  0  0  0
    2.8152   -1.3722   -3.2560 C   0  0  0  0  0  0
    1.5897   -1.0860   -2.3927 C   0  0  0  0  0  0
   -3.2347    1.6743    0.1026 C   0  0  0  0  0  0
   -2.7992   -0.6955   -0.1053 C   0  0  0  0  0  0
   -4.1612   -0.9559    0.0223 C   0  0  0  0  0  0
   -4.5961    1.4125    0.2308 C   0  0  0  0  0  0
   -5.0536    0.0987    0.1907 C   0  0  0  0  0  0
   -0.3737   -0.9704    0.3275 H   0  0  0  0  0  0
    1.6914    1.0202   -1.9230 H   0  0  0  0  0  0
    1.8148    0.8635    0.5525 H   0  0  0  0  0  0
    1.8687   -0.8756    0.4714 H   0  0  0  0  0  0
    3.5276    0.6812   -3.5344 H   0  0  0  0  0  0
    4.8138   -0.4919   -3.0988 H   0  0  0  0  0  0
    2.5933   -1.4607   -4.3199 H   0  0  0  0  0  0
    3.2723   -2.3162   -2.9521 H   0  0  0  0  0  0
    1.3165   -1.9760   -1.8230 H   0  0  0  0  0  0
    0.7241   -0.8071   -2.9950 H   0  0  0  0  0  0
   -2.9005    2.7018    0.1366 H   0  0  0  0  0  0
   -2.1287   -1.5316   -0.2428 H   0  0  0  0  0  0
   -4.5244   -1.9725   -0.0113 H   0  0  0  0  0  0
   -5.2945    2.2262    0.3600 H   0  0  0  0  0  0
   -6.1100   -0.1037    0.2890 H   0  0  0  0  0  0
  1  2  1  0  0  0
  1  4  3  0  0  0
  2  6  1  0  0  0
  2 10  1  0  0  0
  3  5  1  0  0  0
  3  7  2  0  0  0
  3  9  1  0  0  0
  5  8  1  0  0  0
  5 18  1  0  0  0
  6  8  1  0  0  0
  6 12  1  0  0  0
  6 19  1  0  0  0
  8 20  1  0  0  0
  8 21  1  0  0  0
  9 13  2  0  0  0
  9 14  1  0  0  0
 10 11  1  0  0  0
 10 22  1  0  0  0
 10 23  1  0  0  0
 11 12  1  0  0  0
 11 24  1  0  0  0
 11 25  1  0  0  0
 12 26  1  0  0  0
 12 27  1  0  0  0
 13 16  1  0  0  0
 13 28  1  0  0  0
 14 15  2  0  0  0
 14 29  1  0  0  0
 15 17  1  0  0  0
 15 30  1  0  0  0
 16 17  2  0  0  0
 16 31  1  0  0  0
 17 32  1  0  0  0
M  END
> <chembl_id>
CHEMBL8480

> <chembl_pref_name>
None

> <s_m_source_file>
sdf/inactives_sanitized.sdf

> <i_m_source_file_index>
386

> <i_lp_mmshare_version>
49012

> <i_m_ct_stereo_status>
1

> <i_f3d_flags>
0

> <s_epik_input>
TiNDTjFbQ0BASF0oW0NIMl1bQ0gyXVtDSDJdMSlbQ0gyXVtOSF1DKD1PKWMyW2NIXVtjSF1bY0hdW2NIXVtjSF0y

> <s_epik_cmdline>
J2VwaWtfcHl0aG9uJywgJy1waHQnLCAnMC41JywgJy1waCcsICc3LjUnLCAnLW50JywgJy1tYScsICcyMDAnLCAnLWltYWUnLCAnPGluZmlsZS5tYWU+JywgJy1vbWFlJywgJzxvdXRmaWxlLm1hZT4n

> <r_lp_tautomer_probability>
1

> <r_epik_Ionization_Penalty>
  0.0000

> <r_epik_Ionization_Penalty_Charging>
  0.0000

> <r_epik_Ionization_Penalty_Neutral>
  0.0000

> <r_epik_State_Penalty>
 -0.0000

> <r_epik_Charging_Adjusted_Penalty>
0

> <i_epik_Tot_Q>
0

> <i_epik_Tot_abs_Q>
0

> <s_lp_Force_Field>
OPLS3e

> <r_lp_Energy>
24.047779

> <b_lp_Chiralities_Consistent>
1

> <s_lp_Variant>
sdf/inactives_sanitized.sdf:386-1

$$$$
sdf/inactives_sanitized.sdf:387
                    3D
 Schrodinger Suite 2020-1.
 59 62  0  0  1  0            999 V2000
   -3.6559    1.1917    0.0661 N   0  0  0  0  0  0
   -4.7650    0.4037    0.0745 C   0  0  0  0  0  0
   -4.8255   -0.9531    0.0860 N   0  0  0  0  0  0
   -3.6389   -1.6143    0.0886 C   0  0  0  0  0  0
   -2.5075    0.4959    0.0708 C   0  0  0  0  0  0
   -2.4175   -0.9207    0.0802 C   0  0  0  0  0  0
   -1.0301   -1.2475    0.0752 C   0  0  0  0  0  0
   -0.3134   -0.0578    0.0573 C   0  0  0  0  0  0
   -1.2151    1.0008    0.0695 N   0  0  0  0  0  0
   -6.0405    1.0999    0.0726 C   0  0  0  0  0  0
   -7.0565    1.6548    0.0710 N   0  0  0  0  0  0
    1.1877    0.1746    0.0327 C   0  0  0  0  0  0
    1.8637   -1.0799   -0.0080 O   0  0  0  0  0  0
    3.2450   -1.1031   -0.0006 C   0  0  0  0  0  0
   -0.8708    2.4240    0.0340 C   0  0  0  0  0  0
   -0.8723    2.9506   -1.4167 C   0  0  0  0  0  0
   -0.5971    4.4675   -1.5426 C   0  0  0  0  0  0
   -0.8395    4.9589   -2.9892 C   0  0  0  0  0  0
   -0.6653    6.4874   -3.1020 C   0  0  0  0  0  0
    0.7268    6.9358   -2.6066 C   0  0  0  0  0  0
    1.0629    6.3797   -1.2057 C   0  0  0  0  0  0
    0.8453    4.8544   -1.1308 C   0  0  0  0  0  0
    4.0607    0.0421    0.0107 C   0  0  0  0  0  0
    5.4544   -0.0736    0.0188 C   0  0  0  0  0  0
    6.0415   -1.3413    0.0127 C   0  0  0  0  0  0
    5.2419   -2.4826   -0.0001 C   0  0  0  0  0  0
    3.8529   -2.3608   -0.0065 C   0  0  0  0  0  0
    6.3262    1.1736    0.0234 C   0  0  0  0  0  0
    6.7032    1.6354   -1.4044 C   0  0  0  0  0  0
    7.5523    2.9187   -1.4376 C   0  0  0  0  0  0
    7.7658    3.5382   -0.3708 O   0  5  0  0  0  0
    7.9767    3.2684   -2.5608 O   0  0  0  0  0  0
   -3.6765   -2.6935    0.0956 H   0  0  0  0  0  0
   -0.5889   -2.2336    0.0765 H   0  0  0  0  0  0
    1.4497    0.7617   -0.8494 H   0  0  0  0  0  0
    1.4849    0.7213    0.9293 H   0  0  0  0  0  0
    0.0939    2.5741    0.5164 H   0  0  0  0  0  0
   -1.5935    2.9716    0.6409 H   0  0  0  0  0  0
   -0.1411    2.3986   -2.0100 H   0  0  0  0  0  0
   -1.8449    2.7340   -1.8626 H   0  0  0  0  0  0
   -1.2920    5.0024   -0.8916 H   0  0  0  0  0  0
   -0.1723    4.4404   -3.6804 H   0  0  0  0  0  0
   -1.8437    4.6808   -3.3126 H   0  0  0  0  0  0
   -0.8124    6.8043   -4.1352 H   0  0  0  0  0  0
   -1.4395    6.9869   -2.5173 H   0  0  0  0  0  0
    1.4841    6.5974   -3.3157 H   0  0  0  0  0  0
    0.7863    8.0248   -2.5985 H   0  0  0  0  0  0
    2.0950    6.6210   -0.9487 H   0  0  0  0  0  0
    0.4392    6.8735   -0.4588 H   0  0  0  0  0  0
    1.0619    4.5086   -0.1203 H   0  0  0  0  0  0
    1.5674    4.3317   -1.7609 H   0  0  0  0  0  0
    3.6267    1.0305    0.0096 H   0  0  0  0  0  0
    7.1171   -1.4434    0.0148 H   0  0  0  0  0  0
    5.6981   -3.4615   -0.0061 H   0  0  0  0  0  0
    3.2423   -3.2519   -0.0162 H   0  0  0  0  0  0
    5.8030    1.9674    0.5607 H   0  0  0  0  0  0
    7.2248    0.9765    0.6115 H   0  0  0  0  0  0
    7.2520    0.8414   -1.9135 H   0  0  0  0  0  0
    5.7966    1.8107   -1.9856 H   0  0  0  0  0  0
  1  2  2  0  0  0
  1  5  1  0  0  0
  2 10  1  0  0  0
  2  3  1  0  0  0
  3  4  2  0  0  0
  4  6  1  0  0  0
  4 33  1  0  0  0
  5  9  1  0  0  0
  5  6  2  0  0  0
  6  7  1  0  0  0
  7  8  2  0  0  0
  7 34  1  0  0  0
  8  9  1  0  0  0
  8 12  1  0  0  0
  9 15  1  0  0  0
 10 11  3  0  0  0
 12 13  1  0  0  0
 12 35  1  0  0  0
 12 36  1  0  0  0
 13 14  1  0  0  0
 14 23  2  0  0  0
 14 27  1  0  0  0
 15 16  1  0  0  0
 15 37  1  0  0  0
 15 38  1  0  0  0
 16 17  1  0  0  0
 16 39  1  0  0  0
 16 40  1  0  0  0
 17 18  1  0  0  0
 17 22  1  0  0  0
 17 41  1  0  0  0
 18 19  1  0  0  0
 18 42  1  0  0  0
 18 43  1  0  0  0
 19 20  1  0  0  0
 19 44  1  0  0  0
 19 45  1  0  0  0
 20 21  1  0  0  0
 20 46  1  0  0  0
 20 47  1  0  0  0
 21 22  1  0  0  0
 21 48  1  0  0  0
 21 49  1  0  0  0
 22 50  1  0  0  0
 22 51  1  0  0  0
 23 24  1  0  0  0
 23 52  1  0  0  0
 24 25  2  0  0  0
 24 28  1  0  0  0
 25 26  1  0  0  0
 25 53  1  0  0  0
 26 27  2  0  0  0
 26 54  1  0  0  0
 27 55  1  0  0  0
 28 29  1  0  0  0
 28 56  1  0  0  0
 28 57  1  0  0  0
 29 30  1  0  0  0
 29 58  1  0  0  0
 29 59  1  0  0  0
 30 31  1  0  0  0
 30 32  2  0  0  0
M  CHG  1  31  -1
M  END
> <chembl_id>
CHEMBL482268

> <chembl_pref_name>
None

> <s_m_source_file>
sdf/inactives_sanitized.sdf

> <i_m_source_file_index>
387

> <i_lp_mmshare_version>
49012

> <i_m_ct_stereo_status>
1

> <i_f3d_flags>
0

> <s_epik_input>
W09IXUMoPU8pW0NIMl1bQ0gyXWMoW2NIXVtjSF1bY0hdMSlbY0hdYzFPW0NIMl1jKFtjSF1jKGMyMylbY0hdbmMobjIpQyNOKW4zW0NIMl1bQ0gyXVtDSF00W0NIMl1bQ0gyXVtDSDJdW0NIMl1bQ0gyXTQ=

> <s_epik_cmdline>
J2VwaWtfcHl0aG9uJywgJy1waHQnLCAnMC41JywgJy1waCcsICc3LjUnLCAnLW50JywgJy1tYScsICcyMDAnLCAnLWltYWUnLCAnPGluZmlsZS5tYWU+JywgJy1vbWFlJywgJzxvdXRmaWxlLm1hZT4n

> <r_lp_tautomer_probability>
1

> <r_epik_Ionization_Penalty>
  0.0008

> <r_epik_Ionization_Penalty_Charging>
  0.0008

> <r_epik_Ionization_Penalty_Neutral>
  0.0000

> <r_epik_State_Penalty>
 -0.0000

> <r_epik_Charging_Adjusted_Penalty>
0.000776732749495298

> <i_epik_Tot_Q>
-1

> <i_epik_Tot_abs_Q>
1

> <s_lp_Force_Field>
OPLS3e

> <r_lp_Energy>
41.314092

> <b_lp_Chiralities_Consistent>
1

> <s_lp_Variant>
sdf/inactives_sanitized.sdf:387-1

$$$$
sdf/inactives_sanitized.sdf:388
                    3D
 Schrodinger Suite 2020-1.
 55 58  0  0  1  0            999 V2000
   -2.9744    1.4243   -0.0162 N   0  0  0  0  0  0
   -4.1163    0.6936   -0.1306 C   0  0  0  0  0  0
   -4.2446   -0.6585   -0.1473 N   0  0  0  0  0  0
   -3.0978   -1.3786   -0.0392 C   0  0  0  0  0  0
   -1.8674    0.6715    0.0887 C   0  0  0  0  0  0
   -1.8488   -0.7472    0.0821 C   0  0  0  0  0  0
   -0.4858   -1.1430    0.2055 C   0  0  0  0  0  0
    0.2916    0.0082    0.2672 C   0  0  0  0  0  0
   -0.5580    1.1098    0.2242 N   0  0  0  0  0  0
   -5.3492    1.4535   -0.2491 C   0  0  0  0  0  0
   -6.3310    2.0592   -0.3434 N   0  0  0  0  0  0
    1.8064    0.1605    0.3892 C   0  0  0  0  0  0
    2.5670   -0.8141   -0.4035 N   0  0  0  0  0  0
    2.8095   -2.1349    0.0768 C   0  0  0  0  0  0
   -0.1465    2.5145    0.2554 C   0  0  0  0  0  0
    0.1487    3.0238   -1.1740 C   0  0  0  0  0  0
    0.7424    4.4499   -1.2761 C   0  0  0  0  0  0
    2.1623    4.5526   -0.6688 C   0  0  0  0  0  0
    2.7744    5.9468   -0.9141 C   0  0  0  0  0  0
    1.8647    7.0685   -0.3665 C   0  0  0  0  0  0
    0.4081    6.9456   -0.8665 C   0  0  0  0  0  0
   -0.1568    5.5299   -0.6280 C   0  0  0  0  0  0
    3.3479   -3.1248   -0.7669 C   0  0  0  0  0  0
    3.5915   -4.4144   -0.3027 C   0  0  0  0  0  0
    3.3017   -4.7393    1.0171 C   0  0  0  0  0  0
    2.7711   -3.7828    1.8747 C   0  0  0  0  0  0
    2.5291   -2.4932    1.4089 C   0  0  0  0  0  0
    2.6746   -0.5332   -1.8374 C   0  0  0  0  0  0
   -3.1888   -2.4547   -0.0535 H   0  0  0  0  0  0
   -0.1005   -2.1514    0.2318 H   0  0  0  0  0  0
    2.1091    1.1425    0.0269 H   0  0  0  0  0  0
    2.1112    0.1490    1.4343 H   0  0  0  0  0  0
   -0.9376    3.1029    0.7218 H   0  0  0  0  0  0
    0.7165    2.6134    0.9125 H   0  0  0  0  0  0
    0.8314    2.3343   -1.6733 H   0  0  0  0  0  0
   -0.7723    2.9872   -1.7583 H   0  0  0  0  0  0
    0.8270    4.6906   -2.3380 H   0  0  0  0  0  0
    2.1481    4.3204    0.3965 H   0  0  0  0  0  0
    2.8055    3.7904   -1.1111 H   0  0  0  0  0  0
    3.7603    6.0084   -0.4520 H   0  0  0  0  0  0
    2.9297    6.0939   -1.9841 H   0  0  0  0  0  0
    1.8723    7.0330    0.7240 H   0  0  0  0  0  0
    2.2707    8.0432   -0.6400 H   0  0  0  0  0  0
   -0.2191    7.6860   -0.3683 H   0  0  0  0  0  0
    0.3681    7.1794   -1.9315 H   0  0  0  0  0  0
   -1.1642    5.4632   -1.0410 H   0  0  0  0  0  0
   -0.2794    5.3408    0.4393 H   0  0  0  0  0  0
    3.5877   -2.9204   -1.7988 H   0  0  0  0  0  0
    4.0041   -5.1599   -0.9665 H   0  0  0  0  0  0
    3.4905   -5.7397    1.3780 H   0  0  0  0  0  0
    2.5468   -4.0393    2.8997 H   0  0  0  0  0  0
    2.1121   -1.7910    2.1127 H   0  0  0  0  0  0
    1.9337   -1.1130   -2.3895 H   0  0  0  0  0  0
    3.6592   -0.8024   -2.2200 H   0  0  0  0  0  0
    2.5072    0.5205   -2.0628 H   0  0  0  0  0  0
  1  2  2  0  0  0
  1  5  1  0  0  0
  2  3  1  0  0  0
  2 10  1  0  0  0
  3  4  2  0  0  0
  4  6  1  0  0  0
  4 29  1  0  0  0
  5  9  1  0  0  0
  5  6  2  0  0  0
  6  7  1  0  0  0
  7  8  2  0  0  0
  7 30  1  0  0  0
  8  9  1  0  0  0
  8 12  1  0  0  0
  9 15  1  0  0  0
 10 11  3  0  0  0
 12 13  1  0  0  0
 12 31  1  0  0  0
 12 32  1  0  0  0
 13 14  1  0  0  0
 13 28  1  0  0  0
 14 23  2  0  0  0
 14 27  1  0  0  0
 15 16  1  0  0  0
 15 33  1  0  0  0
 15 34  1  0  0  0
 16 17  1  0  0  0
 16 35  1  0  0  0
 16 36  1  0  0  0
 17 18  1  0  0  0
 17 22  1  0  0  0
 17 37  1  0  0  0
 18 19  1  0  0  0
 18 38  1  0  0  0
 18 39  1  0  0  0
 19 20  1  0  0  0
 19 40  1  0  0  0
 19 41  1  0  0  0
 20 21  1  0  0  0
 20 42  1  0  0  0
 20 43  1  0  0  0
 21 22  1  0  0  0
 21 44  1  0  0  0
 21 45  1  0  0  0
 22 46  1  0  0  0
 22 47  1  0  0  0
 23 24  1  0  0  0
 23 48  1  0  0  0
 24 25  2  0  0  0
 24 49  1  0  0  0
 25 26  1  0  0  0
 25 50  1  0  0  0
 26 27  2  0  0  0
 26 51  1  0  0  0
 27 52  1  0  0  0
 28 53  1  0  0  0
 28 54  1  0  0  0
 28 55  1  0  0  0
M  END
> <chembl_id>
CHEMBL493244

> <chembl_pref_name>
None

> <s_m_source_file>
sdf/inactives_sanitized.sdf

> <i_m_source_file_index>
388

> <i_lp_mmshare_version>
49012

> <i_m_ct_stereo_status>
1

> <i_f3d_flags>
0

> <s_epik_input>
W2NIXTFbY0hdW2NIXVtjSF1bY0hdYzFOKFtDSDNdKVtDSDJdYyhbY0hdYyhjMjMpW2NIXW5jKG4yKUMjTiluM1tDSDJdW0NIMl1bQ0hdNFtDSDJdW0NIMl1bQ0gyXVtDSDJdW0NIMl00

> <s_epik_cmdline>
J2VwaWtfcHl0aG9uJywgJy1waHQnLCAnMC41JywgJy1waCcsICc3LjUnLCAnLW50JywgJy1tYScsICcyMDAnLCAnLWltYWUnLCAnPGluZmlsZS5tYWU+JywgJy1vbWFlJywgJzxvdXRmaWxlLm1hZT4n

> <r_lp_tautomer_probability>
1

> <r_epik_Ionization_Penalty>
  0.0002

> <r_epik_Ionization_Penalty_Charging>
  0.0000

> <r_epik_Ionization_Penalty_Neutral>
  0.0002

> <r_epik_State_Penalty>
 -0.0000

> <r_epik_Charging_Adjusted_Penalty>
0

> <i_epik_Tot_Q>
0

> <i_epik_Tot_abs_Q>
0

> <s_lp_Force_Field>
OPLS3e

> <r_lp_Energy>
54.897074

> <b_lp_Chiralities_Consistent>
1

> <s_lp_Variant>
sdf/inactives_sanitized.sdf:388-1

$$$$
sdf/inactives_sanitized.sdf:389
                    3D
 Schrodinger Suite 2020-1.
 58 61  0  0  1  0            999 V2000
   -0.7102    1.0146    0.0240 C   0  0  0  0  0  0
   -0.0722   -0.2249   -0.1545 C   0  0  0  0  0  0
   -0.8586   -1.3760   -0.3156 C   0  0  0  0  0  0
   -2.2482   -1.2978   -0.2908 C   0  0  0  0  0  0
   -2.9001   -0.0717   -0.1114 C   0  0  0  0  0  0
   -2.1110    1.0755    0.0404 C   0  0  0  0  0  0
   -4.3907    0.0158   -0.0809 C   0  0  0  0  0  0
   -5.0709    1.1008   -0.6574 C   0  0  0  0  0  0
   -6.3818   -1.0348    0.6088 C   0  0  0  0  0  0
   -5.0281   -1.0225    0.5296 N   0  0  0  0  0  0
   -7.1555    0.0041    0.0644 C   0  0  0  0  0  0
   -6.4683    1.0701   -0.5715 C   0  0  0  0  0  0
   -7.4727    1.9141   -1.0021 N   0  0  0  0  0  0
   -8.6575    1.3302   -0.6111 C   0  0  0  0  0  0
   -8.5138    0.1965    0.0246 N   0  0  0  0  0  0
    0.1200    2.2898    0.2090 C   0  0  0  0  0  0
    0.8984    2.1671    1.2851 F   0  0  0  0  0  0
    0.8956    2.4824   -0.8587 F   0  0  0  0  0  0
   -0.6343    3.3789    0.3701 F   0  0  0  0  0  0
    1.3110   -0.2411   -0.1693 O   0  0  0  0  0  0
    2.0069   -1.4847   -0.1771 C   0  0  0  0  0  0
    3.5145   -1.2256   -0.0058 C   0  0  0  0  0  0
   -6.9541   -2.1874    1.2885 C   0  0  0  0  0  0
   -7.4094   -3.1038    1.8290 N   0  0  0  0  0  0
   -7.3198    3.1651   -1.7241 C   0  0  0  0  0  0
    3.9052   -0.4399    1.2692 C   0  0  0  0  0  0
    5.4129   -0.0882    1.2905 C   0  0  0  0  0  0
    5.7992    0.7107    2.5588 C   0  0  0  0  0  0
    5.4088   -0.1117    3.7204 N   0  0  0  0  0  0
    3.9563   -0.3481    3.8305 C   0  0  0  0  0  0
    3.5360   -1.1679    2.5873 C   0  0  0  0  0  0
    6.3188   -0.9209    4.3254 C   0  0  0  0  0  0
    7.5182   -0.9134    4.0426 O   0  0  0  0  0  0
    5.8830   -1.7518    5.5366 C   0  0  0  0  0  0
   -0.4097   -2.3460   -0.4641 H   0  0  0  0  0  0
   -2.8204   -2.2053   -0.4197 H   0  0  0  0  0  0
   -2.5998    2.0275    0.1872 H   0  0  0  0  0  0
   -4.5488    1.9096   -1.1474 H   0  0  0  0  0  0
   -9.5966    1.8137   -0.8394 H   0  0  0  0  0  0
    1.6487   -2.1399    0.6184 H   0  0  0  0  0  0
    1.8323   -1.9984   -1.1240 H   0  0  0  0  0  0
    4.0427   -2.1801   -0.0218 H   0  0  0  0  0  0
    3.8664   -0.6797   -0.8825 H   0  0  0  0  0  0
   -8.2960    3.6075   -1.9279 H   0  0  0  0  0  0
   -6.8054    2.9757   -2.6668 H   0  0  0  0  0  0
   -6.7279    3.8575   -1.1246 H   0  0  0  0  0  0
    3.3698    0.5119    1.2740 H   0  0  0  0  0  0
    6.0181   -0.9938    1.2198 H   0  0  0  0  0  0
    5.6715    0.4832    0.3982 H   0  0  0  0  0  0
    6.8386    1.0398    2.5985 H   0  0  0  0  0  0
    5.2226    1.6351    2.6128 H   0  0  0  0  0  0
    3.6468   -0.7686    4.7872 H   0  0  0  0  0  0
    3.4757    0.6310    3.8105 H   0  0  0  0  0  0
    2.4642   -1.3615    2.6238 H   0  0  0  0  0  0
    3.9958   -2.1575    2.6181 H   0  0  0  0  0  0
    5.2174   -2.5582    5.2278 H   0  0  0  0  0  0
    5.3681   -1.1297    6.2692 H   0  0  0  0  0  0
    6.7471   -2.1995    6.0292 H   0  0  0  0  0  0
  1 16  1  0  0  0
  1  6  2  0  0  0
  1  2  1  0  0  0
  2 20  1  0  0  0
  2  3  2  0  0  0
  3  4  1  0  0  0
  3 35  1  0  0  0
  4  5  2  0  0  0
  4 36  1  0  0  0
  5  7  1  0  0  0
  5  6  1  0  0  0
  6 37  1  0  0  0
  7 10  2  0  0  0
  7  8  1  0  0  0
  8 12  2  0  0  0
  8 38  1  0  0  0
  9 11  2  0  0  0
  9 10  1  0  0  0
  9 23  1  0  0  0
 11 12  1  0  0  0
 11 15  1  0  0  0
 12 13  1  0  0  0
 13 25  1  0  0  0
 13 14  1  0  0  0
 14 15  2  0  0  0
 14 39  1  0  0  0
 16 17  1  0  0  0
 16 18  1  0  0  0
 16 19  1  0  0  0
 20 21  1  0  0  0
 21 22  1  0  0  0
 21 40  1  0  0  0
 21 41  1  0  0  0
 22 26  1  0  0  0
 22 42  1  0  0  0
 22 43  1  0  0  0
 23 24  3  0  0  0
 25 44  1  0  0  0
 25 45  1  0  0  0
 25 46  1  0  0  0
 26 27  1  0  0  0
 26 31  1  0  0  0
 26 47  1  0  0  0
 27 28  1  0  0  0
 27 48  1  0  0  0
 27 49  1  0  0  0
 28 29  1  0  0  0
 28 50  1  0  0  0
 28 51  1  0  0  0
 29 30  1  0  0  0
 29 32  1  0  0  0
 30 31  1  0  0  0
 30 52  1  0  0  0
 30 53  1  0  0  0
 31 54  1  0  0  0
 31 55  1  0  0  0
 32 33  2  0  0  0
 32 34  1  0  0  0
 34 56  1  0  0  0
 34 57  1  0  0  0
 34 58  1  0  0  0
M  END
> <chembl_id>
CHEMBL1669281

> <chembl_pref_name>
None

> <s_m_source_file>
sdf/inactives_sanitized.sdf

> <i_m_source_file_index>
389

> <i_lp_mmshare_version>
49012

> <i_m_ct_stereo_status>
1

> <i_f3d_flags>
0

> <s_epik_input>
W0NIMl0xW0NIMl1OKEMoPU8pW0NIM10pW0NIMl1bQ0gyXVtDSF0xW0NIMl1bQ0gyXU9jKGMyQyhGKShGKUYpW2NIXVtjSF1jKFtjSF0yKS1jKG5jM0MjTilbY0hdYyhjMzQpbihbY0hdbjQpW0NIM10=

> <s_epik_cmdline>
J2VwaWtfcHl0aG9uJywgJy1waHQnLCAnMC41JywgJy1waCcsICc3LjUnLCAnLW50JywgJy1tYScsICcyMDAnLCAnLWltYWUnLCAnPGluZmlsZS5tYWU+JywgJy1vbWFlJywgJzxvdXRmaWxlLm1hZT4n

> <r_lp_tautomer_probability>
1

> <r_epik_Ionization_Penalty>
  0.0000

> <r_epik_Ionization_Penalty_Charging>
  0.0000

> <r_epik_Ionization_Penalty_Neutral>
  0.0000

> <r_epik_State_Penalty>
 -0.0000

> <r_epik_Charging_Adjusted_Penalty>
2.10485508124941e-07

> <i_epik_Tot_Q>
0

> <i_epik_Tot_abs_Q>
0

> <s_lp_Force_Field>
OPLS3e

> <r_lp_Energy>
35.256033

> <b_lp_Chiralities_Consistent>
1

> <s_lp_Variant>
sdf/inactives_sanitized.sdf:389-1

$$$$
sdf/inactives_sanitized.sdf:390
                    3D
 Schrodinger Suite 2020-1.
 75 77  0  0  1  0            999 V2000
   -3.6279    4.7159    0.8365 N   0  0  0  0  0  0
   -3.5196    3.6909    1.6943 N   0  0  0  0  0  0
    0.3853    1.5429   -2.5897 C   0  0  0  0  0  0
   -1.9707    1.8556   -0.6047 C   0  0  0  0  0  0
   -2.6317    5.5358    1.1185 C   0  0  0  0  0  0
   -1.7270   10.4525   -1.8971 C   0  0  0  0  0  0
    0.0709    0.1110   -3.2087 C   0  0  0  0  0  0
   -1.8731    5.0312    2.1916 C   0  0  0  0  0  0
   -0.7511    1.2154   -0.3949 N   0  0  0  0  0  0
    3.0950   -3.0224   -4.8141 N   0  0  0  0  0  0
    1.3360   -1.8487   -5.5704 C   0  0  0  0  0  0
    0.4965    1.6504   -1.0609 C   0  0  1  0  0  0
   -4.4405    2.5630    1.5937 C   0  0  0  0  0  0
   -2.4579    3.8322    2.5464 C   0  0  0  0  0  0
   -4.2529    1.7664    0.2686 C   0  0  1  0  0  0
   -2.9007    1.2877    0.1979 O   0  0  0  0  0  0
    1.9215   -2.3572   -4.4533 O   0  0  0  0  0  0
    0.2160    0.0897   -4.5472 N   0  0  0  0  0  0
   -1.9573    9.1714   -1.0961 C   0  0  0  0  0  0
    2.1065   -2.1958   -6.6597 C   0  0  0  0  0  0
   -2.4076    6.8029    0.3446 C   0  0  0  0  0  0
   -5.2447    0.5724    0.0567 C   0  0  0  0  0  0
    0.5862    2.5126   -3.3257 O   0  0  0  0  0  0
   -2.1832    2.7976   -1.3718 O   0  0  0  0  0  0
   -0.2493   -0.8478   -2.5043 O   0  0  0  0  0  0
    3.1720   -2.9074   -6.1193 C   0  0  0  0  0  0
    0.0367   -1.0917   -5.3898 C   0  0  0  0  0  0
   -3.0937    8.3984   -1.3481 C   0  0  0  0  0  0
   -1.0454    8.7544   -0.1216 C   0  0  0  0  0  0
   -3.3172    7.2248   -0.6340 C   0  0  0  0  0  0
   -1.2703    7.5803    0.5921 C   0  0  0  0  0  0
   -1.8305   10.1994   -3.2026 F   0  0  0  0  0  0
   -2.6514   11.3535   -1.5632 F   0  0  0  0  0  0
   -0.5241   10.9858   -1.6743 F   0  0  0  0  0  0
    1.7228    0.8703   -0.5107 C   0  0  0  0  0  0
   -4.9762   -0.0815   -1.3227 C   0  0  0  0  0  0
   -6.7070    1.0807    0.0564 C   0  0  0  0  0  0
   -5.0899   -0.5073    1.1564 C   0  0  0  0  0  0
    3.0938    1.3452   -1.0415 C   0  0  0  0  0  0
    4.2754    0.5945   -0.4034 C   0  0  0  0  0  0
    5.6368    1.0592   -0.9385 C   0  0  0  0  0  0
   -1.0003    5.4768    2.6448 H   0  0  0  0  0  0
   -0.6526    0.6822    0.4566 H   0  0  0  0  0  0
    0.6540    2.6920   -0.7702 H   0  0  0  0  0  0
   -4.2932    1.9212    2.4628 H   0  0  0  0  0  0
   -5.4502    2.9657    1.6723 H   0  0  0  0  0  0
   -2.2210    3.0866    3.2912 H   0  0  0  0  0  0
   -4.4440    2.4615   -0.5519 H   0  0  0  0  0  0
    0.4768    0.9453   -5.0164 H   0  0  0  0  0  0
    1.9255   -1.9627   -7.6984 H   0  0  0  0  0  0
    3.9918   -3.3380   -6.6752 H   0  0  0  0  0  0
   -0.3411   -0.7528   -6.3546 H   0  0  0  0  0  0
   -0.7429   -1.7384   -4.9817 H   0  0  0  0  0  0
   -3.8071    8.7054   -2.0993 H   0  0  0  0  0  0
   -0.1585    9.3335    0.0904 H   0  0  0  0  0  0
   -4.2036    6.6463   -0.8500 H   0  0  0  0  0  0
   -0.5473    7.2823    1.3364 H   0  0  0  0  0  0
    1.7247    0.9620    0.5769 H   0  0  0  0  0  0
    1.6095   -0.1980   -0.7024 H   0  0  0  0  0  0
   -5.6907   -0.8772   -1.5388 H   0  0  0  0  0  0
   -3.9817   -0.5268   -1.3766 H   0  0  0  0  0  0
   -5.0483    0.6472   -2.1314 H   0  0  0  0  0  0
   -6.8484    1.8929   -0.6581 H   0  0  0  0  0  0
   -7.0148    1.4481    1.0354 H   0  0  0  0  0  0
   -7.4075    0.2886   -0.2125 H   0  0  0  0  0  0
   -5.7479   -1.3581    0.9736 H   0  0  0  0  0  0
   -5.3400   -0.1219    2.1451 H   0  0  0  0  0  0
   -4.0710   -0.8939    1.2038 H   0  0  0  0  0  0
    3.1389    1.2126   -2.1233 H   0  0  0  0  0  0
    3.2026    2.4149   -0.8556 H   0  0  0  0  0  0
    4.2534    0.7257    0.6795 H   0  0  0  0  0  0
    4.1686   -0.4763   -0.5835 H   0  0  0  0  0  0
    6.4497    0.5095   -0.4636 H   0  0  0  0  0  0
    5.7974    2.1205   -0.7454 H   0  0  0  0  0  0
    5.7144    0.8991   -2.0145 H   0  0  0  0  0  0
  1  2  1  0  0  0
  1  5  2  0  0  0
  2 13  1  0  0  0
  2 14  1  0  0  0
  3 12  1  0  0  0
  3  7  1  0  0  0
  3 23  2  0  0  0
  4 16  1  0  0  0
  4  9  1  0  0  0
  4 24  2  0  0  0
  5  8  1  0  0  0
  5 21  1  0  0  0
  6 19  1  0  0  0
  6 32  1  0  0  0
  6 33  1  0  0  0
  6 34  1  0  0  0
  7 18  1  0  0  0
  7 25  2  0  0  0
  8 14  2  0  0  0
  8 42  1  0  0  0
  9 12  1  0  0  0
  9 43  1  0  0  0
 10 17  1  0  0  0
 10 26  2  0  0  0
 11 27  1  0  0  0
 11 17  1  0  0  0
 11 20  2  0  0  0
 12 35  1  0  0  0
 12 44  1  0  0  0
 13 15  1  0  0  0
 13 45  1  0  0  0
 13 46  1  0  0  0
 14 47  1  0  0  0
 15 16  1  0  0  0
 15 22  1  0  0  0
 15 48  1  0  0  0
 18 27  1  0  0  0
 18 49  1  0  0  0
 19 29  2  0  0  0
 19 28  1  0  0  0
 20 26  1  0  0  0
 20 50  1  0  0  0
 21 30  1  0  0  0
 21 31  2  0  0  0
 22 36  1  0  0  0
 22 37  1  0  0  0
 22 38  1  0  0  0
 26 51  1  0  0  0
 27 52  1  0  0  0
 27 53  1  0  0  0
 28 30  2  0  0  0
 28 54  1  0  0  0
 29 31  1  0  0  0
 29 55  1  0  0  0
 30 56  1  0  0  0
 31 57  1  0  0  0
 35 39  1  0  0  0
 35 58  1  0  0  0
 35 59  1  0  0  0
 36 60  1  0  0  0
 36 61  1  0  0  0
 36 62  1  0  0  0
 37 63  1  0  0  0
 37 64  1  0  0  0
 37 65  1  0  0  0
 38 66  1  0  0  0
 38 67  1  0  0  0
 38 68  1  0  0  0
 39 40  1  0  0  0
 39 69  1  0  0  0
 39 70  1  0  0  0
 40 41  1  0  0  0
 40 71  1  0  0  0
 40 72  1  0  0  0
 41 73  1  0  0  0
 41 74  1  0  0  0
 41 75  1  0  0  0
M  END
> <chembl_id>
CHEMBL365049

> <chembl_pref_name>
None

> <i_m_ct_stereo_status>
1

> <s_m_source_file>
sdf/inactives_sanitized.sdf

> <i_m_source_file_index>
390

> <i_lp_mmshare_version>
49012

> <i_f3d_flags>
0

> <s_epik_input>
RkMoRikoRiljMVtjSF1bY0hdYyhbY0hdW2NIXTEpLWMoW2NIXVtjSF0yKW5uMltDSDJdW0NASF0oQyhbQ0gzXSkoW0NIM10pW0NIM10pT0MoPU8pW05IXVtDQEBIXShbQ0gyXVtDSDJdW0NIMl1bQ0gzXSlDKD1PKUMoPU8pW05IXVtDSDJdYzNvbltjSF1bY0hdMw==

> <s_epik_cmdline>
J2VwaWtfcHl0aG9uJywgJy1waHQnLCAnMC41JywgJy1waCcsICc3LjUnLCAnLW50JywgJy1tYScsICcyMDAnLCAnLWltYWUnLCAnPGluZmlsZS5tYWU+JywgJy1vbWFlJywgJzxvdXRmaWxlLm1hZT4n

> <r_lp_tautomer_probability>
1

> <r_epik_Ionization_Penalty>
  0.0002

> <r_epik_Ionization_Penalty_Charging>
  0.0000

> <r_epik_Ionization_Penalty_Neutral>
  0.0002

> <r_epik_State_Penalty>
 -0.0000

> <r_epik_Charging_Adjusted_Penalty>
0

> <i_epik_Tot_Q>
0

> <i_epik_Tot_abs_Q>
0

> <s_epik_Chemistry_Notes>
This compound has an ester and may undergo hydrolysis at high or low pH.

> <s_lp_Force_Field>
OPLS3e

> <r_lp_Energy>
27.280335

> <b_lp_Chiralities_Consistent>
1

> <s_lp_Variant>
sdf/inactives_sanitized.sdf:390-1

$$$$
sdf/inactives_sanitized.sdf:391
                    3D
 Schrodinger Suite 2020-1.
 48 49  0  0  1  0            999 V2000
   -3.3818    8.2764    4.4427 N   0  0  0  0  0  0
   -2.3405    7.8865    3.5832 N   0  0  0  0  0  0
   -3.8790    9.5377    4.5764 C   0  0  0  0  0  0
   -4.8796    9.6409    5.4775 N   0  0  0  0  0  0
   -3.3733   10.8967    3.7526 S   0  0  0  0  0  0
   -1.8778    6.5599    3.6080 C   0  0  0  0  0  0
   -1.6695    5.7993    2.4870 C   0  0  0  0  0  0
   -1.6005    6.0834    5.0404 C   0  0  0  0  0  0
   -1.1906    4.4069    2.5320 C   0  0  0  0  0  0
   -1.6876    5.5283    0.0387 O   0  0  0  0  0  0
   -1.9381    6.3616    1.1114 C   0  0  0  0  0  0
   -1.2354    4.2542    0.1511 C   0  0  0  0  0  0
   -0.9771    3.6542    1.4400 C   0  0  0  0  0  0
   -0.5134    2.2776    1.4488 C   0  0  0  0  0  0
   -0.3109    1.5751    0.3051 C   0  0  0  0  0  0
   -0.5745    2.1733   -1.0460 C   0  0  0  0  0  0
   -1.0518    3.5752   -1.0037 C   0  0  0  0  0  0
   -2.3550    7.4759    0.7942 O   0  0  0  0  0  0
   -0.4191    1.5797   -2.1132 O   0  0  0  0  0  0
    0.1458    0.1157    0.3125 C   0  0  0  0  0  0
    1.6271   -0.0871   -0.0627 C   0  0  0  0  0  0
    2.0654   -1.5603    0.0159 C   0  0  0  0  0  0
    3.5458   -1.7685   -0.3498 C   0  0  0  0  0  0
    3.9845   -3.2402   -0.2535 C   0  0  0  0  0  0
    5.4616   -3.4493   -0.6136 C   0  0  0  0  0  0
   -3.7657    7.5083    4.9743 H   0  0  0  0  0  0
   -2.5850    8.2329    2.6652 H   0  0  0  0  0  0
   -5.1901    8.8241    5.9833 H   0  0  0  0  0  0
   -5.3123   10.5386    5.6418 H   0  0  0  0  0  0
   -1.0874    5.1296    5.1177 H   0  0  0  0  0  0
   -2.5306    5.9911    5.6017 H   0  0  0  0  0  0
   -0.9688    6.8073    5.5577 H   0  0  0  0  0  0
   -1.0048    3.9249    3.4774 H   0  0  0  0  0  0
   -0.3260    1.7978    2.3991 H   0  0  0  0  0  0
   -1.2684    4.0822   -1.9331 H   0  0  0  0  0  0
   -0.0250   -0.2970    1.3084 H   0  0  0  0  0  0
   -0.4929   -0.4679   -0.3535 H   0  0  0  0  0  0
    1.8075    0.2879   -1.0712 H   0  0  0  0  0  0
    2.2522    0.5105    0.6029 H   0  0  0  0  0  0
    1.8872   -1.9364    1.0246 H   0  0  0  0  0  0
    1.4407   -2.1592   -0.6487 H   0  0  0  0  0  0
    3.7235   -1.4028   -1.3625 H   0  0  0  0  0  0
    4.1700   -1.1619    0.3084 H   0  0  0  0  0  0
    3.8090   -3.6089    0.7581 H   0  0  0  0  0  0
    3.3664   -3.8511   -0.9128 H   0  0  0  0  0  0
    5.7363   -4.5014   -0.5328 H   0  0  0  0  0  0
    6.1149   -2.8850    0.0527 H   0  0  0  0  0  0
    5.6690   -3.1312   -1.6358 H   0  0  0  0  0  0
  1  2  1  0  0  0
  1  3  1  0  0  0
  1 26  1  0  0  0
  2  6  1  0  0  0
  2 27  1  0  0  0
  3  4  1  0  0  0
  3  5  2  0  0  0
  4 28  1  0  0  0
  4 29  1  0  0  0
  6  7  2  0  0  0
  6  8  1  0  0  0
  7  9  1  0  0  0
  7 11  1  0  0  0
  8 30  1  0  0  0
  8 31  1  0  0  0
  8 32  1  0  0  0
  9 13  2  0  0  0
  9 33  1  0  0  0
 10 12  1  0  0  0
 10 11  1  0  0  0
 11 18  2  0  0  0
 12 13  1  0  0  0
 12 17  2  0  0  0
 13 14  1  0  0  0
 14 15  2  0  0  0
 14 34  1  0  0  0
 15 16  1  0  0  0
 15 20  1  0  0  0
 16 17  1  0  0  0
 16 19  2  0  0  0
 17 35  1  0  0  0
 20 21  1  0  0  0
 20 36  1  0  0  0
 20 37  1  0  0  0
 21 22  1  0  0  0
 21 38  1  0  0  0
 21 39  1  0  0  0
 22 23  1  0  0  0
 22 40  1  0  0  0
 22 41  1  0  0  0
 23 24  1  0  0  0
 23 42  1  0  0  0
 23 43  1  0  0  0
 24 25  1  0  0  0
 24 44  1  0  0  0
 24 45  1  0  0  0
 25 46  1  0  0  0
 25 47  1  0  0  0
 25 48  1  0  0  0
M  END
> <chembl_id>
CHEMBL2311590

> <chembl_pref_name>
None

> <s_m_source_file>
sdf/inactives_sanitized.sdf

> <i_m_source_file_index>
391

> <i_lp_mmshare_version>
49012

> <i_m_ct_stereo_status>
1

> <i_f3d_flags>
0

> <s_epik_input>
W05IMl1DKD1TKVtOSF1bTkhdL0MoW0NIM10pPWMoYyhvMSk9TykvW2NIXWMoYzE9MilbQ0hdPUMoQyg9TylbQ0hdMilbQ0gyXVtDSDJdW0NIMl1bQ0gyXVtDSDJdW0NIM10=

> <s_epik_cmdline>
J2VwaWtfcHl0aG9uJywgJy1waHQnLCAnMC41JywgJy1waCcsICc3LjUnLCAnLW50JywgJy1tYScsICcyMDAnLCAnLWltYWUnLCAnPGluZmlsZS5tYWU+JywgJy1vbWFlJywgJzxvdXRmaWxlLm1hZT4n

> <r_lp_tautomer_probability>
1

> <r_epik_Ionization_Penalty>
  0.0007

> <r_epik_Ionization_Penalty_Charging>
  0.0000

> <r_epik_Ionization_Penalty_Neutral>
  0.0007

> <r_epik_State_Penalty>
 -0.0000

> <r_epik_Charging_Adjusted_Penalty>
0

> <i_epik_Tot_Q>
0

> <i_epik_Tot_abs_Q>
0

> <s_lp_Force_Field>
OPLS3e

> <r_lp_Energy>
28.545253

> <b_lp_Chiralities_Consistent>
1

> <s_lp_Variant>
sdf/inactives_sanitized.sdf:391-1

$$$$
sdf/inactives_sanitized.sdf:392
                    3D
 Schrodinger Suite 2020-1.
 33 34  0  0  1  0            999 V2000
   -0.4218    1.3402   -0.0276 C   0  0  0  0  0  0
    0.3032    2.5397    0.0237 C   0  0  0  0  0  0
   -0.3621    3.7627    0.0367 C   0  0  0  0  0  0
   -1.7606    3.8164   -0.0016 C   0  0  0  0  0  0
   -2.4790    2.6142   -0.0551 C   0  0  0  0  0  0
   -1.8142    1.3915   -0.0680 C   0  0  0  0  0  0
    0.1500    0.0821   -0.0421 O   0  0  0  0  0  0
    1.5693   -0.0450    0.0209 C   0  0  0  0  0  0
   -2.4648    5.1455    0.0155 C   0  0  0  0  0  0
   -1.8699    6.4069    0.0136 C   0  0  0  0  0  0
   -3.0933    7.6393    0.0372 S   0  0  0  0  0  0
   -4.3406    6.4818    0.0506 N   0  0  0  0  0  0
   -3.7851    5.2164    0.0356 N   0  0  0  0  0  0
    1.9604   -1.5164    0.0386 C   0  0  0  0  0  0
    2.6635   -1.9883   -0.9201 N   0  0  0  0  0  0
    1.4421   -2.2651    1.2759 C   0  0  0  0  0  0
    2.9832   -3.3022   -0.8525 N   0  0  0  0  0  0
    3.7161   -3.9801   -1.7841 C   0  0  0  0  0  0
    3.9039   -5.2838   -1.4853 N   0  0  0  0  0  0
    4.3711   -3.3698   -3.1938 S   0  0  0  0  0  0
    1.3820    2.5441    0.0536 H   0  0  0  0  0  0
    0.2264    4.6668    0.0783 H   0  0  0  0  0  0
   -3.5588    2.6162   -0.0872 H   0  0  0  0  0  0
   -2.3861    0.4759   -0.1089 H   0  0  0  0  0  0
    2.0210    0.4656   -0.8331 H   0  0  0  0  0  0
    1.9495    0.4371    0.9235 H   0  0  0  0  0  0
   -0.8229    6.6696   -0.0006 H   0  0  0  0  0  0
    0.3527   -2.2377    1.3141 H   0  0  0  0  0  0
    1.8129   -1.7995    2.1893 H   0  0  0  0  0  0
    1.7336   -3.3144    1.3136 H   0  0  0  0  0  0
    2.6311   -3.7886   -0.0406 H   0  0  0  0  0  0
    3.5242   -5.6665   -0.6316 H   0  0  0  0  0  0
    4.4299   -5.8694   -2.1184 H   0  0  0  0  0  0
  1  2  2  0  0  0
  1  6  1  0  0  0
  1  7  1  0  0  0
  2  3  1  0  0  0
  2 21  1  0  0  0
  3  4  2  0  0  0
  3 22  1  0  0  0
  4  5  1  0  0  0
  4  9  1  0  0  0
  5  6  2  0  0  0
  5 23  1  0  0  0
  6 24  1  0  0  0
  7  8  1  0  0  0
  8 14  1  0  0  0
  8 25  1  0  0  0
  8 26  1  0  0  0
  9 10  2  0  0  0
  9 13  1  0  0  0
 10 11  1  0  0  0
 10 27  1  0  0  0
 11 12  1  0  0  0
 12 13  2  0  0  0
 14 15  2  0  0  0
 14 16  1  0  0  0
 15 17  1  0  0  0
 16 28  1  0  0  0
 16 29  1  0  0  0
 16 30  1  0  0  0
 17 18  1  0  0  0
 17 31  1  0  0  0
 18 19  1  0  0  0
 18 20  2  0  0  0
 19 32  1  0  0  0
 19 33  1  0  0  0
M  END
> <chembl_id>
CHEMBL2316606

> <chembl_pref_name>
None

> <s_m_source_file>
sdf/inactives_sanitized.sdf

> <i_m_source_file_index>
392

> <i_lp_mmshare_version>
49012

> <i_m_ct_stereo_status>
1

> <i_f3d_flags>
0

> <s_epik_input>
W05IMl1DKD1TKVtOSF1cTj1DKFtDSDNdKVxbQ0gyXU9jMVtjSF1bY0hdYyhbY0hdW2NIXTEpLWMyW2NIXXNubjI=

> <s_epik_cmdline>
J2VwaWtfcHl0aG9uJywgJy1waHQnLCAnMC41JywgJy1waCcsICc3LjUnLCAnLW50JywgJy1tYScsICcyMDAnLCAnLWltYWUnLCAnPGluZmlsZS5tYWU+JywgJy1vbWFlJywgJzxvdXRmaWxlLm1hZT4n

> <r_lp_tautomer_probability>
1

> <r_epik_Ionization_Penalty>
  0.0007

> <r_epik_Ionization_Penalty_Charging>
  0.0000

> <r_epik_Ionization_Penalty_Neutral>
  0.0007

> <r_epik_State_Penalty>
 -0.0000

> <r_epik_Charging_Adjusted_Penalty>
0

> <i_epik_Tot_Q>
0

> <i_epik_Tot_abs_Q>
0

> <s_epik_Chemistry_Notes>
This compound has an imine and may undergo hydrolysis.

> <s_lp_Force_Field>
OPLS3e

> <r_lp_Energy>
29.676281

> <b_lp_Chiralities_Consistent>
1

> <s_lp_Variant>
sdf/inactives_sanitized.sdf:392-1

$$$$
sdf/inactives_sanitized.sdf:393
                    3D
 Schrodinger Suite 2020-1.
 30 31  0  0  1  0            999 V2000
   -1.2862   -1.9265    0.5726 C   0  0  0  0  0  0
   -0.9458   -0.4796    0.9109 C   0  0  0  0  0  0
   -0.2233    0.0435   -0.3305 C   0  0  2  0  0  0
   -0.5940   -0.9621   -1.4351 C   0  0  0  0  0  0
   -1.6424   -1.7740   -0.8283 N   0  0  1  0  0  0
   -2.1238   -2.8312   -1.5068 C   0  0  0  0  0  0
   -2.4924   -3.7611   -2.0888 N   0  0  0  0  0  0
    1.2351    0.1971   -0.1581 N   0  0  1  0  0  0
    1.9605    1.7953   -0.0255 S   0  0  0  0  0  0
    1.3950    2.4178    1.5547 C   0  0  0  0  0  0
    0.6537    3.6000    1.6280 C   0  0  0  0  0  0
    0.2143    4.0627    2.8657 C   0  0  0  0  0  0
    0.5180    3.3436    4.0201 C   0  0  0  0  0  0
    1.2588    2.1654    3.9500 C   0  0  0  0  0  0
    1.6999    1.7010    2.7139 C   0  0  0  0  0  0
    3.4108    1.6106    0.0930 O   0  0  0  0  0  0
    1.3916    2.6450   -1.0784 O   0  0  0  0  0  0
   -2.1281   -2.3095    1.1505 H   0  0  0  0  0  0
   -0.4227   -2.5909    0.6430 H   0  0  0  0  0  0
   -1.8647    0.0875    1.0727 H   0  0  0  0  0  0
   -0.3720   -0.4001    1.8353 H   0  0  0  0  0  0
   -0.6120    1.0281   -0.5956 H   0  0  0  0  0  0
   -0.9526   -0.4578   -2.3332 H   0  0  0  0  0  0
    0.2515   -1.5933   -1.7162 H   0  0  0  0  0  0
    1.7564   -0.6043    0.2073 H   0  0  0  0  0  0
    0.4152    4.1610    0.7364 H   0  0  0  0  0  0
   -0.3595    4.9756    2.9303 H   0  0  0  0  0  0
    0.1766    3.7041    4.9794 H   0  0  0  0  0  0
    1.4905    1.6153    4.8502 H   0  0  0  0  0  0
    2.2735    0.7872    2.6570 H   0  0  0  0  0  0
  1  5  1  0  0  0
  1  2  1  0  0  0
  1 18  1  0  0  0
  1 19  1  0  0  0
  2  3  1  0  0  0
  2 20  1  0  0  0
  2 21  1  0  0  0
  3  4  1  0  0  0
  3  8  1  0  0  0
  3 22  1  0  0  0
  4  5  1  0  0  0
  4 23  1  0  0  0
  4 24  1  0  0  0
  5  6  1  0  0  0
  6  7  3  0  0  0
  8  9  1  0  0  0
  8 25  1  0  0  0
  9 10  1  0  0  0
  9 16  2  0  0  0
  9 17  2  0  0  0
 10 11  2  0  0  0
 10 15  1  0  0  0
 11 12  1  0  0  0
 11 26  1  0  0  0
 12 13  2  0  0  0
 12 27  1  0  0  0
 13 14  1  0  0  0
 13 28  1  0  0  0
 14 15  2  0  0  0
 14 29  1  0  0  0
 15 30  1  0  0  0
M  END
> <chembl_id>
CHEMBL1672422

> <chembl_pref_name>
None

> <i_m_ct_stereo_status>
1

> <s_m_source_file>
sdf/inactives_sanitized.sdf

> <i_m_source_file_index>
393

> <i_lp_mmshare_version>
49012

> <i_f3d_flags>
0

> <s_epik_input>
TiNDTihbQ0gyXTEpW0NIMl1bQ0gyXVtDQEhdMVtOSF1TKD1PKSg9TyljMltjSF1bY0hdW2NIXVtjSF1bY0hdMg==

> <s_epik_cmdline>
J2VwaWtfcHl0aG9uJywgJy1waHQnLCAnMC41JywgJy1waCcsICc3LjUnLCAnLW50JywgJy1tYScsICcyMDAnLCAnLWltYWUnLCAnPGluZmlsZS5tYWU+JywgJy1vbWFlJywgJzxvdXRmaWxlLm1hZT4n

> <r_lp_tautomer_probability>
1

> <r_epik_Ionization_Penalty>
  0.0001

> <r_epik_Ionization_Penalty_Charging>
  0.0000

> <r_epik_Ionization_Penalty_Neutral>
  0.0001

> <r_epik_State_Penalty>
 -0.0000

> <r_epik_Charging_Adjusted_Penalty>
0

> <i_epik_Tot_Q>
0

> <i_epik_Tot_abs_Q>
0

> <s_lp_Force_Field>
OPLS3e

> <r_lp_Energy>
13.181634

> <b_lp_Chiralities_Consistent>
1

> <s_lp_Variant>
sdf/inactives_sanitized.sdf:393-1

$$$$
sdf/inactives_sanitized.sdf:394
                    3D
 Schrodinger Suite 2020-1.
 51 50  0  0  1  0            999 V2000
   -0.4532    4.5768   -1.7127 C   0  0  0  0  0  0
   -0.6121    3.4613   -0.8159 O   0  0  0  0  0  0
   -1.0281    4.2600   -3.1158 C   0  0  0  0  0  0
    1.0283    5.0183   -1.8066 C   0  0  0  0  0  0
   -1.2828    5.7057   -1.0672 C   0  0  0  0  0  0
   -0.0645    2.2283   -0.9873 C   0  0  0  0  0  0
   -0.4804    1.4110    0.0598 N   0  0  0  0  0  0
    0.6676    1.8981   -1.9215 O   0  0  0  0  0  0
   -0.1500   -0.0180    0.2051 C   0  0  2  0  0  0
    1.3474   -0.1689    0.5247 C   0  0  0  0  0  0
    2.1227   -0.9857   -0.0654 N   0  0  0  0  0  0
   -0.6502   -0.9183   -0.9643 C   0  0  0  0  0  0
   -2.1531   -0.7733   -1.2807 C   0  0  0  0  0  0
   -2.6212   -1.7104   -2.4075 C   0  0  0  0  0  0
   -4.1129   -1.5560   -2.7327 C   0  0  0  0  0  0
    3.3834   -0.9279    0.3969 N   0  0  0  0  0  0
    4.2915   -1.9310    0.0849 C   0  0  0  0  0  0
    4.0554   -2.9495   -0.5688 O   0  0  0  0  0  0
    5.9549   -1.5387    0.7703 S   0  0  0  0  0  0
    6.9151   -2.9664    0.1569 C   0  0  0  0  0  0
    8.2083   -3.1473    0.9675 C   0  0  0  0  0  0
    7.2172   -2.9055   -1.3522 C   0  0  0  0  0  0
   -1.0325    5.1452   -3.7531 H   0  0  0  0  0  0
   -2.0552    3.8991   -3.0496 H   0  0  0  0  0  0
   -0.4518    3.4948   -3.6358 H   0  0  0  0  0  0
    1.6509    4.2730   -2.3014 H   0  0  0  0  0  0
    1.4538    5.1866   -0.8164 H   0  0  0  0  0  0
    1.1311    5.9469   -2.3694 H   0  0  0  0  0  0
   -1.2499    6.6194   -1.6621 H   0  0  0  0  0  0
   -0.9164    5.9508   -0.0692 H   0  0  0  0  0  0
   -2.3310    5.4214   -0.9618 H   0  0  0  0  0  0
   -1.0997    1.8134    0.7479 H   0  0  0  0  0  0
   -0.6950   -0.3371    1.0942 H   0  0  0  0  0  0
    1.6632    0.4856    1.3366 H   0  0  0  0  0  0
   -0.0773   -0.7079   -1.8693 H   0  0  0  0  0  0
   -0.4449   -1.9633   -0.7243 H   0  0  0  0  0  0
   -2.7331   -0.9725   -0.3784 H   0  0  0  0  0  0
   -2.3717    0.2574   -1.5635 H   0  0  0  0  0  0
   -2.0383   -1.5178   -3.3092 H   0  0  0  0  0  0
   -2.4212   -2.7462   -2.1298 H   0  0  0  0  0  0
   -4.4076   -2.2313   -3.5363 H   0  0  0  0  0  0
   -4.3452   -0.5399   -3.0531 H   0  0  0  0  0  0
   -4.7330   -1.7841   -1.8650 H   0  0  0  0  0  0
    3.5578   -0.3009    1.1688 H   0  0  0  0  0  0
    6.3200   -3.8604    0.3498 H   0  0  0  0  0  0
    8.7579   -4.0323    0.6443 H   0  0  0  0  0  0
    7.9944   -3.2719    2.0296 H   0  0  0  0  0  0
    8.8715   -2.2883    0.8578 H   0  0  0  0  0  0
    7.7737   -3.7851   -1.6776 H   0  0  0  0  0  0
    7.8137   -2.0273   -1.6018 H   0  0  0  0  0  0
    6.3067   -2.8681   -1.9494 H   0  0  0  0  0  0
  1  2  1  0  0  0
  1  4  1  0  0  0
  1  5  1  0  0  0
  1  3  1  0  0  0
  2  6  1  0  0  0
  3 23  1  0  0  0
  3 24  1  0  0  0
  3 25  1  0  0  0
  4 26  1  0  0  0
  4 27  1  0  0  0
  4 28  1  0  0  0
  5 29  1  0  0  0
  5 30  1  0  0  0
  5 31  1  0  0  0
  6  7  1  0  0  0
  6  8  2  0  0  0
  7  9  1  0  0  0
  7 32  1  0  0  0
  9 12  1  0  0  0
  9 10  1  0  0  0
  9 33  1  0  0  0
 10 11  2  0  0  0
 10 34  1  0  0  0
 11 16  1  0  0  0
 12 13  1  0  0  0
 12 35  1  0  0  0
 12 36  1  0  0  0
 13 14  1  0  0  0
 13 37  1  0  0  0
 13 38  1  0  0  0
 14 15  1  0  0  0
 14 39  1  0  0  0
 14 40  1  0  0  0
 15 41  1  0  0  0
 15 42  1  0  0  0
 15 43  1  0  0  0
 16 17  1  0  0  0
 16 44  1  0  0  0
 17 18  2  0  0  0
 17 19  1  0  0  0
 19 20  1  0  0  0
 20 21  1  0  0  0
 20 22  1  0  0  0
 20 45  1  0  0  0
 21 46  1  0  0  0
 21 47  1  0  0  0
 21 48  1  0  0  0
 22 49  1  0  0  0
 22 50  1  0  0  0
 22 51  1  0  0  0
M  END
> <chembl_id>
CHEMBL204744

> <chembl_pref_name>
None

> <i_m_ct_stereo_status>
1

> <s_m_source_file>
sdf/inactives_sanitized.sdf

> <i_m_source_file_index>
394

> <i_lp_mmshare_version>
49012

> <i_f3d_flags>
0

> <s_epik_input>
W0NIM11DKFtDSDNdKShbQ0gzXSlPQyg9TylbTkhdW0NAQEhdKFtDSDJdW0NIMl1bQ0gyXVtDSDNdKS9bQ0hdPU4vW05IXUMoPU8pU1tDSF0oW0NIM10pW0NIM10=

> <s_epik_cmdline>
J2VwaWtfcHl0aG9uJywgJy1waHQnLCAnMC41JywgJy1waCcsICc3LjUnLCAnLW50JywgJy1tYScsICcyMDAnLCAnLWltYWUnLCAnPGluZmlsZS5tYWU+JywgJy1vbWFlJywgJzxvdXRmaWxlLm1hZT4n

> <r_epik_Ionization_Penalty>
  0.0333

> <r_epik_Ionization_Penalty_Charging>
  0.0000

> <r_epik_Ionization_Penalty_Neutral>
  0.0333

> <r_epik_State_Penalty>
  0.0277

> <r_epik_Charging_Adjusted_Penalty>
0.0276724549752871

> <i_epik_Tot_Q>
0

> <i_epik_Tot_abs_Q>
0

> <s_epik_Chemistry_Notes>
This compound has an ester and may undergo hydrolysis at high or low pH. This compound has an imine and may undergo hydrolysis.

> <s_lp_Force_Field>
OPLS3e

> <r_lp_Energy>
14.555015

> <b_lp_Chiralities_Consistent>
1

> <s_lp_Variant>
sdf/inactives_sanitized.sdf:394-1

$$$$
sdf/inactives_sanitized.sdf:395
                    3D
 Schrodinger Suite 2020-1.
 44 45  0  0  1  0            999 V2000
    0.1095    0.0298   -0.0132 C   0  0  2  0  0  0
   -0.5430   -0.8086   -1.1338 C   0  0  0  0  0  0
   -0.4699    1.4500   -0.0078 C   0  0  0  0  0  0
   -3.8401   -1.1712   -3.2437 N   0  0  0  0  0  0
   -1.3279    1.8641    1.0183 C   0  0  0  0  0  0
   -1.8523    3.1658    1.0368 C   0  0  0  0  0  0
   -3.1330   -1.7755   -2.5554 C   0  0  0  0  0  0
   -0.6601    3.6378   -1.0324 N   0  0  0  0  0  0
    1.6636   -0.0004   -0.0895 C   0  0  0  0  0  0
   -0.2120   -0.6450   -2.3095 O   0  0  0  0  0  0
   -2.7527    3.6314    2.1336 C   0  0  0  0  0  0
   -1.4780   -1.6991   -0.7584 N   0  0  0  0  0  0
   -0.1680    2.3755   -1.0143 C   0  0  0  0  0  0
   -1.4832    4.0102   -0.0207 C   0  0  0  0  0  0
   -2.2332   -2.5455   -1.6782 C   0  0  0  0  0  0
    2.4114    0.8122    1.0007 C   0  0  0  0  0  0
   -3.7855    4.5438    1.8747 C   0  0  0  0  0  0
   -2.5806    3.1666    3.4456 C   0  0  0  0  0  0
    3.9317    0.7861    0.7591 C   0  0  0  0  0  0
    2.0794    0.3502    2.4335 C   0  0  0  0  0  0
   -3.4174    3.5995    4.4707 C   0  0  0  0  0  0
   -4.6236    4.9802    2.8975 C   0  0  0  0  0  0
   -4.4362    4.5053    4.1921 C   0  0  0  0  0  0
   -0.1622   -0.4392    0.9346 H   0  0  0  0  0  0
   -1.5867    1.1676    1.8025 H   0  0  0  0  0  0
    2.0005   -1.0380   -0.0407 H   0  0  0  0  0  0
    1.9858    0.3590   -1.0689 H   0  0  0  0  0  0
   -1.7438   -1.7430    0.2145 H   0  0  0  0  0  0
    0.4838    2.1113   -1.8342 H   0  0  0  0  0  0
   -1.8382    5.0289   -0.0691 H   0  0  0  0  0  0
   -2.8410   -3.2417   -1.1002 H   0  0  0  0  0  0
   -1.5614   -3.1434   -2.2962 H   0  0  0  0  0  0
    2.1012    1.8548    0.9179 H   0  0  0  0  0  0
   -3.9518    4.9156    0.8742 H   0  0  0  0  0  0
   -1.7881    2.4722    3.6834 H   0  0  0  0  0  0
    4.3304   -0.2265    0.8311 H   0  0  0  0  0  0
    4.4592    1.4025    1.4879 H   0  0  0  0  0  0
    4.1820    1.1713   -0.2300 H   0  0  0  0  0  0
    2.3111   -0.7058    2.5768 H   0  0  0  0  0  0
    1.0260    0.4972    2.6718 H   0  0  0  0  0  0
    2.6489    0.9163    3.1714 H   0  0  0  0  0  0
   -3.2741    3.2357    5.4777 H   0  0  0  0  0  0
   -5.4166    5.6826    2.6870 H   0  0  0  0  0  0
   -5.0855    4.8428    4.9864 H   0  0  0  0  0  0
  1  2  1  0  0  0
  1  3  1  0  0  0
  1  9  1  0  0  0
  1 24  1  0  0  0
  2 10  2  0  0  0
  2 12  1  0  0  0
  3  5  2  0  0  0
  3 13  1  0  0  0
  4  7  3  0  0  0
  5  6  1  0  0  0
  5 25  1  0  0  0
  6 11  1  0  0  0
  6 14  2  0  0  0
  7 15  1  0  0  0
  8 13  2  0  0  0
  8 14  1  0  0  0
  9 16  1  0  0  0
  9 26  1  0  0  0
  9 27  1  0  0  0
 11 17  2  0  0  0
 11 18  1  0  0  0
 12 15  1  0  0  0
 12 28  1  0  0  0
 13 29  1  0  0  0
 14 30  1  0  0  0
 15 31  1  0  0  0
 15 32  1  0  0  0
 16 19  1  0  0  0
 16 20  1  0  0  0
 16 33  1  0  0  0
 17 22  1  0  0  0
 17 34  1  0  0  0
 18 21  2  0  0  0
 18 35  1  0  0  0
 19 36  1  0  0  0
 19 37  1  0  0  0
 19 38  1  0  0  0
 20 39  1  0  0  0
 20 40  1  0  0  0
 20 41  1  0  0  0
 21 23  1  0  0  0
 21 42  1  0  0  0
 22 23  2  0  0  0
 22 43  1  0  0  0
 23 44  1  0  0  0
M  END
> <chembl_id>
CHEMBL121807

> <chembl_pref_name>
None

> <s_m_source_file>
sdf/inactives_sanitized.sdf

> <i_m_source_file_index>
395

> <i_lp_mmshare_version>
49012

> <i_m_ct_stereo_status>
1

> <i_f3d_flags>
0

> <s_epik_input>
TiNDW0NIMl1bTkhdQyg9TylbQ0BASF0oW0NIMl1bQ0hdKFtDSDNdKVtDSDNdKWMxW2NIXWMoW2NIXW5bY0hdMSktYzJbY0hdW2NIXVtjSF1bY0hdW2NIXTI=

> <s_epik_cmdline>
J2VwaWtfcHl0aG9uJywgJy1waHQnLCAnMC41JywgJy1waCcsICc3LjUnLCAnLW50JywgJy1tYScsICcyMDAnLCAnLWltYWUnLCAnPGluZmlsZS5tYWU+JywgJy1vbWFlJywgJzxvdXRmaWxlLm1hZT4n

> <r_lp_tautomer_probability>
1

> <r_epik_Ionization_Penalty>
  0.0005

> <r_epik_Ionization_Penalty_Charging>
  0.0000

> <r_epik_Ionization_Penalty_Neutral>
  0.0005

> <r_epik_State_Penalty>
 -0.0000

> <r_epik_Charging_Adjusted_Penalty>
0

> <i_epik_Tot_Q>
0

> <i_epik_Tot_abs_Q>
0

> <s_lp_Force_Field>
OPLS3e

> <r_lp_Energy>
29.234702

> <b_lp_Chiralities_Consistent>
1

> <s_lp_Variant>
sdf/inactives_sanitized.sdf:395-1

$$$$
sdf/inactives_sanitized.sdf:396
                    3D
 Schrodinger Suite 2020-1.
 52 51  0  0  1  0            999 V2000
   -0.4509   -0.7139    1.0536 C   0  0  0  0  0  0
   -1.9755   -1.0860    0.8435 C   0  0  0  0  0  0
   -1.2072    1.6699   -1.2544 C   0  0  0  0  0  0
   -0.3710    1.3080   -0.2047 N   0  0  0  0  0  0
   -2.6792   -0.9934    1.9903 N   0  0  0  0  0  0
    0.2393   -0.0319   -0.1287 C   0  0  1  0  0  0
   -1.7176    2.9023   -0.9920 O   0  0  0  0  0  0
    0.1080   -0.9800    2.1220 O   0  0  0  0  0  0
   -2.4148   -1.3834   -0.2677 O   0  0  0  0  0  0
   -1.4683    0.9897   -2.2482 O   0  0  0  0  0  0
   -4.1278   -1.1765    2.1732 C   0  0  0  0  0  0
   -2.7120    3.5772   -1.7851 C   0  0  0  0  0  0
    1.7785    0.0454    0.0475 C   0  0  0  0  0  0
   -4.4416   -0.9414    3.6663 C   0  0  0  0  0  0
   -4.5665   -2.6141    1.8016 C   0  0  0  0  0  0
   -4.9307   -0.1479    1.3376 C   0  0  0  0  0  0
   -4.0264    2.7586   -1.8614 C   0  0  0  0  0  0
   -2.1746    3.9010   -3.2008 C   0  0  0  0  0  0
   -2.9804    4.8917   -1.0240 C   0  0  0  0  0  0
    2.4978    0.6883   -1.1560 C   0  0  0  0  0  0
    4.0288    0.7027   -1.0041 C   0  0  0  0  0  0
    4.7409    1.3412   -2.2042 C   0  0  0  0  0  0
   -0.2116    1.9574    0.5515 H   0  0  0  0  0  0
   -2.1704   -0.7370    2.8239 H   0  0  0  0  0  0
    0.0564   -0.6226   -1.0301 H   0  0  0  0  0  0
    2.0231    0.6175    0.9451 H   0  0  0  0  0  0
    2.1777   -0.9599    0.1973 H   0  0  0  0  0  0
   -5.5059   -1.0564    3.8765 H   0  0  0  0  0  0
   -4.1572    0.0631    3.9840 H   0  0  0  0  0  0
   -3.9083   -1.6471    4.3053 H   0  0  0  0  0  0
   -4.0135   -3.3613    2.3724 H   0  0  0  0  0  0
   -4.4082   -2.8301    0.7447 H   0  0  0  0  0  0
   -5.6272   -2.7715    2.0017 H   0  0  0  0  0  0
   -6.0023   -0.2304    1.5243 H   0  0  0  0  0  0
   -4.7844   -0.2874    0.2660 H   0  0  0  0  0  0
   -4.6370    0.8761    1.5733 H   0  0  0  0  0  0
   -4.8253    3.3316   -2.3336 H   0  0  0  0  0  0
   -4.3718    2.4715   -0.8675 H   0  0  0  0  0  0
   -3.9087    1.8404   -2.4367 H   0  0  0  0  0  0
   -2.0097    3.0026   -3.7954 H   0  0  0  0  0  0
   -1.2230    4.4319   -3.1504 H   0  0  0  0  0  0
   -2.8713    4.5299   -3.7562 H   0  0  0  0  0  0
   -3.7276    5.5046   -1.5300 H   0  0  0  0  0  0
   -2.0738    5.4914   -0.9297 H   0  0  0  0  0  0
   -3.3439    4.7005   -0.0131 H   0  0  0  0  0  0
    2.2326    0.1476   -2.0659 H   0  0  0  0  0  0
    2.1439    1.7115   -1.2915 H   0  0  0  0  0  0
    4.3030    1.2429   -0.0967 H   0  0  0  0  0  0
    4.3937   -0.3171   -0.8746 H   0  0  0  0  0  0
    5.8225    1.3268   -2.0681 H   0  0  0  0  0  0
    4.4379    2.3803   -2.3374 H   0  0  0  0  0  0
    4.5168    0.8062   -3.1278 H   0  0  0  0  0  0
  1  2  1  0  0  0
  1  6  1  0  0  0
  1  8  2  0  0  0
  2  5  1  0  0  0
  2  9  2  0  0  0
  3  4  1  0  0  0
  3  7  1  0  0  0
  3 10  2  0  0  0
  4  6  1  0  0  0
  4 23  1  0  0  0
  5 11  1  0  0  0
  5 24  1  0  0  0
  6 13  1  0  0  0
  6 25  1  0  0  0
  7 12  1  0  0  0
 11 14  1  0  0  0
 11 15  1  0  0  0
 11 16  1  0  0  0
 12 17  1  0  0  0
 12 18  1  0  0  0
 12 19  1  0  0  0
 13 20  1  0  0  0
 13 26  1  0  0  0
 13 27  1  0  0  0
 14 28  1  0  0  0
 14 29  1  0  0  0
 14 30  1  0  0  0
 15 31  1  0  0  0
 15 32  1  0  0  0
 15 33  1  0  0  0
 16 34  1  0  0  0
 16 35  1  0  0  0
 16 36  1  0  0  0
 17 37  1  0  0  0
 17 38  1  0  0  0
 17 39  1  0  0  0
 18 40  1  0  0  0
 18 41  1  0  0  0
 18 42  1  0  0  0
 19 43  1  0  0  0
 19 44  1  0  0  0
 19 45  1  0  0  0
 20 21  1  0  0  0
 20 46  1  0  0  0
 20 47  1  0  0  0
 21 22  1  0  0  0
 21 48  1  0  0  0
 21 49  1  0  0  0
 22 50  1  0  0  0
 22 51  1  0  0  0
 22 52  1  0  0  0
M  END
> <chembl_id>
CHEMBL159869

> <chembl_pref_name>
None

> <i_m_ct_stereo_status>
1

> <s_m_source_file>
sdf/inactives_sanitized.sdf

> <i_m_source_file_index>
396

> <i_lp_mmshare_version>
49012

> <i_f3d_flags>
0

> <s_epik_input>
W0NIM11DKFtDSDNdKShbQ0gzXSlbTkhdQyg9TylDKD1PKVtDQEhdKFtDSDJdW0NIMl1bQ0gyXVtDSDNdKVtOSF1DKD1PKU9DKFtDSDNdKShbQ0gzXSlbQ0gzXQ==

> <s_epik_cmdline>
J2VwaWtfcHl0aG9uJywgJy1waHQnLCAnMC41JywgJy1waCcsICc3LjUnLCAnLW50JywgJy1tYScsICcyMDAnLCAnLWltYWUnLCAnPGluZmlsZS5tYWU+JywgJy1vbWFlJywgJzxvdXRmaWxlLm1hZT4n

> <r_lp_tautomer_probability>
1

> <r_epik_Ionization_Penalty>
  0.0000

> <r_epik_Ionization_Penalty_Charging>
  0.0000

> <r_epik_Ionization_Penalty_Neutral>
  0.0000

> <r_epik_State_Penalty>
 -0.0000

> <r_epik_Charging_Adjusted_Penalty>
0

> <i_epik_Tot_Q>
0

> <i_epik_Tot_abs_Q>
0

> <s_epik_Chemistry_Notes>
This compound has an ester and may undergo hydrolysis at high or low pH.

> <s_lp_Force_Field>
OPLS3e

> <r_lp_Energy>
13.593822

> <b_lp_Chiralities_Consistent>
1

> <s_lp_Variant>
sdf/inactives_sanitized.sdf:396-1

$$$$
sdf/inactives_sanitized.sdf:397
                    3D
 Schrodinger Suite 2020-1.
 42 44  0  0  1  0            999 V2000
   -2.0219    1.1326    1.7327 C   0  0  0  0  0  0
   -0.3591    1.5084    1.2590 S   0  0  0  0  0  0
    0.2699   -0.1142    0.7182 C   0  0  0  0  0  0
    1.7581   -0.1458    0.2780 C   0  0  1  0  0  0
    2.2832   -1.5857   -0.0438 C   0  0  1  0  0  0
    3.7764   -1.5740   -0.4727 C   0  0  0  0  0  0
    3.9955   -0.6336   -1.6749 C   0  0  0  0  0  0
    3.4738    0.7883   -1.3958 C   0  0  0  0  0  0
    1.9999    0.7663   -0.9534 C   0  0  0  0  0  0
    2.1548   -2.5344    1.1719 C   0  0  0  0  0  0
    2.6201   -2.2107    2.2660 O   0  0  0  0  0  0
    1.5078   -3.6960    0.9715 N   0  0  0  0  0  0
    1.3149   -4.7229    1.9919 C   0  0  0  0  0  0
    2.5773   -5.3605    2.4064 C   0  0  0  0  0  0
    3.5683   -5.8617    2.7312 N   0  0  0  0  0  0
   -2.7390   -0.4671    1.5858 S   0  0  0  0  0  0
   -2.8124    2.0485    2.2211 N   0  0  0  0  0  0
   -4.0437    1.5607    2.5245 C   0  0  0  0  0  0
   -5.0954    2.3144    3.0689 C   0  0  0  0  0  0
   -6.3070    1.6715    3.3290 C   0  0  0  0  0  0
   -6.4801    0.3141    3.0578 C   0  0  0  0  0  0
   -5.4495   -0.4550    2.5160 C   0  0  0  0  0  0
   -4.2283    0.1809    2.2526 C   0  0  0  0  0  0
   -0.3562   -0.4745   -0.0990 H   0  0  0  0  0  0
    0.1181   -0.7955    1.5551 H   0  0  0  0  0  0
    2.3580    0.2475    1.1019 H   0  0  0  0  0  0
    1.6779   -2.0176   -0.8444 H   0  0  0  0  0  0
    4.4128   -1.1842    0.3253 H   0  0  0  0  0  0
    4.1076   -2.5643   -0.7915 H   0  0  0  0  0  0
    5.0561   -0.5945   -1.9274 H   0  0  0  0  0  0
    3.4907   -1.0397   -2.5530 H   0  0  0  0  0  0
    4.0818    1.2577   -0.6207 H   0  0  0  0  0  0
    3.5851    1.4066   -2.2874 H   0  0  0  0  0  0
    1.3706    0.4354   -1.7816 H   0  0  0  0  0  0
    1.6694    1.7843   -0.7454 H   0  0  0  0  0  0
    1.1915   -3.9222    0.0399 H   0  0  0  0  0  0
    0.8231   -4.3071    2.8729 H   0  0  0  0  0  0
    0.6597   -5.4984    1.5953 H   0  0  0  0  0  0
   -4.9762    3.3663    3.2842 H   0  0  0  0  0  0
   -7.1271    2.2358    3.7488 H   0  0  0  0  0  0
   -7.4317   -0.1502    3.2720 H   0  0  0  0  0  0
   -5.5918   -1.5058    2.3092 H   0  0  0  0  0  0
  1  2  1  0  0  0
  1 16  1  0  0  0
  1 17  2  0  0  0
  2  3  1  0  0  0
  3  4  1  0  0  0
  3 24  1  0  0  0
  3 25  1  0  0  0
  4  5  1  0  0  0
  4  9  1  0  0  0
  4 26  1  0  0  0
  5  6  1  0  0  0
  5 10  1  0  0  0
  5 27  1  0  0  0
  6  7  1  0  0  0
  6 28  1  0  0  0
  6 29  1  0  0  0
  7  8  1  0  0  0
  7 30  1  0  0  0
  7 31  1  0  0  0
  8  9  1  0  0  0
  8 32  1  0  0  0
  8 33  1  0  0  0
  9 34  1  0  0  0
  9 35  1  0  0  0
 10 12  1  0  0  0
 10 11  2  0  0  0
 12 13  1  0  0  0
 12 36  1  0  0  0
 13 14  1  0  0  0
 13 37  1  0  0  0
 13 38  1  0  0  0
 14 15  3  0  0  0
 16 23  1  0  0  0
 17 18  1  0  0  0
 18 23  2  0  0  0
 18 19  1  0  0  0
 19 20  2  0  0  0
 19 39  1  0  0  0
 20 21  1  0  0  0
 20 40  1  0  0  0
 21 22  2  0  0  0
 21 41  1  0  0  0
 22 23  1  0  0  0
 22 42  1  0  0  0
M  END
> <chembl_id>
CHEMBL202061

> <chembl_pref_name>
None

> <i_m_ct_stereo_status>
1

> <s_m_source_file>
sdf/inactives_sanitized.sdf

> <i_m_source_file_index>
397

> <i_lp_mmshare_version>
49012

> <i_f3d_flags>
0

> <s_epik_input>
W2NIXTFbY0hdW2NIXVtjSF1jKGMxMilzYyhuMilTW0NIMl1bQ0BIXTNbQ0BASF0oW0NIMl1bQ0gyXVtDSDJdW0NIMl0zKUMoPU8pW05IXVtDSDJdQyNO

> <s_epik_cmdline>
J2VwaWtfcHl0aG9uJywgJy1waHQnLCAnMC41JywgJy1waCcsICc3LjUnLCAnLW50JywgJy1tYScsICcyMDAnLCAnLWltYWUnLCAnPGluZmlsZS5tYWU+JywgJy1vbWFlJywgJzxvdXRmaWxlLm1hZT4n

> <r_lp_tautomer_probability>
1

> <r_epik_Ionization_Penalty>
  0.0002

> <r_epik_Ionization_Penalty_Charging>
  0.0000

> <r_epik_Ionization_Penalty_Neutral>
  0.0002

> <r_epik_State_Penalty>
 -0.0000

> <r_epik_Charging_Adjusted_Penalty>
0

> <i_epik_Tot_Q>
0

> <i_epik_Tot_abs_Q>
0

> <s_lp_Force_Field>
OPLS3e

> <r_lp_Energy>
19.069921

> <b_lp_Chiralities_Consistent>
1

> <s_lp_Variant>
sdf/inactives_sanitized.sdf:397-1

$$$$
sdf/inactives_sanitized.sdf:398
                    3D
 Schrodinger Suite 2020-1.
 40 41  0  0  1  0            999 V2000
   -4.9753    1.2548    2.0113 C   0  0  0  0  0  0
   -4.3014    2.4685    2.1518 C   0  0  0  0  0  0
   -2.9400    2.5487    1.8544 C   0  0  0  0  0  0
   -2.2472    1.4174    1.4169 C   0  0  0  0  0  0
   -2.9263    0.2014    1.2769 C   0  0  0  0  0  0
   -4.2879    0.1221    1.5739 C   0  0  0  0  0  0
   -0.5180    1.5668    1.0545 S   0  0  0  0  0  0
    0.1159   -0.0561    0.5297 C   0  0  0  0  0  0
    1.6375   -0.1317    0.2312 C   0  0  1  0  0  0
    2.1373   -1.5801   -0.0942 C   0  0  1  0  0  0
    3.6655   -1.6151   -0.3708 C   0  0  0  0  0  0
    4.0388   -0.6435   -1.5084 C   0  0  0  0  0  0
    3.5437    0.7882   -1.2295 C   0  0  0  0  0  0
    2.0330    0.8113   -0.9351 C   0  0  0  0  0  0
    1.8448   -2.5618    1.0650 C   0  0  0  0  0  0
    2.2260   -2.3062    2.2086 O   0  0  0  0  0  0
    1.1472   -3.6706    0.7618 N   0  0  0  0  0  0
    0.7071   -4.6620    1.7393 C   0  0  0  0  0  0
   -0.3040   -4.1281    2.6694 C   0  0  0  0  0  0
   -1.0985   -3.7081    3.3982 N   0  0  0  0  0  0
   -5.1511    3.8695    2.6936 Cl  0  0  0  0  0  0
   -5.1217   -1.3789    1.3997 Cl  0  0  0  0  0  0
   -6.0292    1.1922    2.2413 H   0  0  0  0  0  0
   -2.4225    3.4909    1.9652 H   0  0  0  0  0  0
   -2.4164   -0.6881    0.9412 H   0  0  0  0  0  0
   -0.1415   -0.7496    1.3299 H   0  0  0  0  0  0
   -0.4466   -0.3742   -0.3489 H   0  0  0  0  0  0
    2.1683    0.2081    1.1236 H   0  0  0  0  0  0
    1.6011   -1.9575   -0.9682 H   0  0  0  0  0  0
    4.2321   -1.2795    0.5009 H   0  0  0  0  0  0
    3.9896   -2.6062   -0.6935 H   0  0  0  0  0  0
    5.1201   -0.6380   -1.6518 H   0  0  0  0  0  0
    3.6113   -0.9992   -2.4473 H   0  0  0  0  0  0
    4.0881    1.2064   -0.3814 H   0  0  0  0  0  0
    3.7665    1.4308   -2.0822 H   0  0  0  0  0  0
    1.4767    0.5348   -1.8324 H   0  0  0  0  0  0
    1.7214    1.8342   -0.7213 H   0  0  0  0  0  0
    0.8266   -3.7999   -0.1868 H   0  0  0  0  0  0
    0.2664   -5.5085    1.2125 H   0  0  0  0  0  0
    1.5519   -5.0455    2.3137 H   0  0  0  0  0  0
  1  6  2  0  0  0
  1  2  1  0  0  0
  1 23  1  0  0  0
  2 21  1  0  0  0
  2  3  2  0  0  0
  3  4  1  0  0  0
  3 24  1  0  0  0
  4  7  1  0  0  0
  4  5  2  0  0  0
  5  6  1  0  0  0
  5 25  1  0  0  0
  6 22  1  0  0  0
  7  8  1  0  0  0
  8  9  1  0  0  0
  8 26  1  0  0  0
  8 27  1  0  0  0
  9 14  1  0  0  0
  9 10  1  0  0  0
  9 28  1  0  0  0
 10 11  1  0  0  0
 10 15  1  0  0  0
 10 29  1  0  0  0
 11 12  1  0  0  0
 11 30  1  0  0  0
 11 31  1  0  0  0
 12 13  1  0  0  0
 12 32  1  0  0  0
 12 33  1  0  0  0
 13 14  1  0  0  0
 13 34  1  0  0  0
 13 35  1  0  0  0
 14 36  1  0  0  0
 14 37  1  0  0  0
 15 16  2  0  0  0
 15 17  1  0  0  0
 17 18  1  0  0  0
 17 38  1  0  0  0
 18 19  1  0  0  0
 18 39  1  0  0  0
 18 40  1  0  0  0
 19 20  3  0  0  0
M  END
> <chembl_id>
CHEMBL378384

> <chembl_pref_name>
None

> <i_m_ct_stereo_status>
1

> <s_m_source_file>
sdf/inactives_sanitized.sdf

> <i_m_source_file_index>
398

> <i_lp_mmshare_version>
49012

> <i_f3d_flags>
0

> <s_epik_input>
Q2xjMVtjSF1jKENsKVtjSF1jKFtjSF0xKVNbQ0gyXVtDQEhdMltDQEBIXShbQ0gyXVtDSDJdW0NIMl1bQ0gyXTIpQyg9TylbTkhdW0NIMl1DI04=

> <s_epik_cmdline>
J2VwaWtfcHl0aG9uJywgJy1waHQnLCAnMC41JywgJy1waCcsICc3LjUnLCAnLW50JywgJy1tYScsICcyMDAnLCAnLWltYWUnLCAnPGluZmlsZS5tYWU+JywgJy1vbWFlJywgJzxvdXRmaWxlLm1hZT4n

> <r_lp_tautomer_probability>
1

> <r_epik_Ionization_Penalty>
  0.0000

> <r_epik_Ionization_Penalty_Charging>
  0.0000

> <r_epik_Ionization_Penalty_Neutral>
  0.0000

> <r_epik_State_Penalty>
 -0.0000

> <r_epik_Charging_Adjusted_Penalty>
0

> <i_epik_Tot_Q>
0

> <i_epik_Tot_abs_Q>
0

> <s_lp_Force_Field>
OPLS3e

> <r_lp_Energy>
16.747165

> <b_lp_Chiralities_Consistent>
1

> <s_lp_Variant>
sdf/inactives_sanitized.sdf:398-1

$$$$
sdf/inactives_sanitized.sdf:399
                    3D
 Schrodinger Suite 2020-1.
 54 54  0  0  1  0            999 V2000
   -0.1961    4.7566    1.0445 C   0  0  0  0  0  0
   -0.4191    3.4375    0.5114 O   0  0  0  0  0  0
    1.1999    5.2958    0.6457 C   0  0  0  0  0  0
   -0.3845    4.7855    2.5823 C   0  0  0  0  0  0
   -1.2860    5.6252    0.3837 C   0  0  0  0  0  0
    0.3001    2.3281    0.8305 C   0  0  0  0  0  0
   -0.2423    1.2386    0.1549 N   0  0  0  0  0  0
    1.2622    2.3011    1.5999 O   0  0  0  0  0  0
    0.2407   -0.1547    0.2580 C   0  0  2  0  0  0
   -0.0754   -0.7959    1.6269 C   0  0  0  0  0  0
   -0.7382   -0.2322    2.5556 N   0  0  0  0  0  0
    1.7363   -0.3210   -0.1467 C   0  0  0  0  0  0
    2.2172   -1.7535   -0.5037 C   0  0  0  0  0  0
   -0.8565   -0.9972    3.6559 N   0  0  0  0  0  0
   -1.4393   -0.5479    4.7897 C   0  0  0  0  0  0
   -2.1092    0.4908    4.8243 O   0  0  0  0  0  0
   -1.0605   -1.2132    5.9189 N   0  0  0  0  0  0
   -2.6736   -2.9459    7.4158 O   0  0  0  0  0  0
   -2.1205   -3.3885    6.1756 C   0  0  0  0  0  0
   -0.7793   -2.6654    5.9064 C   0  0  0  0  0  0
   -1.5856   -0.7677    7.2244 C   0  0  0  0  0  0
   -2.9065   -1.5375    7.4710 C   0  0  0  0  0  0
    3.7402   -1.7753   -0.7320 C   0  0  0  0  0  0
    1.4820   -2.3534   -1.7185 C   0  0  0  0  0  0
    1.3170    6.3425    0.9293 H   0  0  0  0  0  0
    1.3560    5.2290   -0.4317 H   0  0  0  0  0  0
    2.0081    4.7418    1.1228 H   0  0  0  0  0  0
    0.3889    4.2223    3.1043 H   0  0  0  0  0  0
   -1.3445    4.3559    2.8713 H   0  0  0  0  0  0
   -0.3533    5.8053    2.9675 H   0  0  0  0  0  0
   -1.2258    6.6639    0.7114 H   0  0  0  0  0  0
   -2.2865    5.2631    0.6255 H   0  0  0  0  0  0
   -1.1976    5.6184   -0.7037 H   0  0  0  0  0  0
   -1.0262    1.4117   -0.4570 H   0  0  0  0  0  0
   -0.3644   -0.6779   -0.4805 H   0  0  0  0  0  0
    0.3143   -1.8092    1.7047 H   0  0  0  0  0  0
    2.3660    0.0672    0.6562 H   0  0  0  0  0  0
    1.9428    0.3284   -0.9998 H   0  0  0  0  0  0
    2.0236   -2.4052    0.3488 H   0  0  0  0  0  0
   -0.3523   -1.8714    3.6313 H   0  0  0  0  0  0
   -1.9607   -4.4660    6.2134 H   0  0  0  0  0  0
   -2.8300   -3.2190    5.3634 H   0  0  0  0  0  0
   -0.1146   -2.8216    6.7574 H   0  0  0  0  0  0
   -0.2023   -3.0244    5.0536 H   0  0  0  0  0  0
   -0.8381   -1.0944    7.9485 H   0  0  0  0  0  0
   -1.6310    0.3155    7.3467 H   0  0  0  0  0  0
   -3.6698   -1.2537    6.7437 H   0  0  0  0  0  0
   -3.3115   -1.2762    8.4485 H   0  0  0  0  0  0
    4.0258   -1.1547   -1.5825 H   0  0  0  0  0  0
    4.0977   -2.7873   -0.9260 H   0  0  0  0  0  0
    4.2772   -1.4060    0.1425 H   0  0  0  0  0  0
    1.5838   -1.7178   -2.5989 H   0  0  0  0  0  0
    0.4184   -2.4886   -1.5244 H   0  0  0  0  0  0
    1.8799   -3.3363   -1.9733 H   0  0  0  0  0  0
  1  2  1  0  0  0
  1  4  1  0  0  0
  1  5  1  0  0  0
  1  3  1  0  0  0
  2  6  1  0  0  0
  3 25  1  0  0  0
  3 26  1  0  0  0
  3 27  1  0  0  0
  4 28  1  0  0  0
  4 29  1  0  0  0
  4 30  1  0  0  0
  5 31  1  0  0  0
  5 32  1  0  0  0
  5 33  1  0  0  0
  6  7  1  0  0  0
  6  8  2  0  0  0
  7  9  1  0  0  0
  7 34  1  0  0  0
  9 10  1  0  0  0
  9 12  1  0  0  0
  9 35  1  0  0  0
 10 11  2  0  0  0
 10 36  1  0  0  0
 11 14  1  0  0  0
 12 13  1  0  0  0
 12 37  1  0  0  0
 12 38  1  0  0  0
 13 23  1  0  0  0
 13 24  1  0  0  0
 13 39  1  0  0  0
 14 15  1  0  0  0
 14 40  1  0  0  0
 15 16  2  0  0  0
 15 17  1  0  0  0
 17 20  1  0  0  0
 17 21  1  0  0  0
 18 22  1  0  0  0
 18 19  1  0  0  0
 19 20  1  0  0  0
 19 41  1  0  0  0
 19 42  1  0  0  0
 20 43  1  0  0  0
 20 44  1  0  0  0
 21 22  1  0  0  0
 21 45  1  0  0  0
 21 46  1  0  0  0
 22 47  1  0  0  0
 22 48  1  0  0  0
 23 49  1  0  0  0
 23 50  1  0  0  0
 23 51  1  0  0  0
 24 52  1  0  0  0
 24 53  1  0  0  0
 24 54  1  0  0  0
M  ISO  1  10  13
M  END
> <chembl_id>
CHEMBL382947

> <chembl_pref_name>
None

> <i_m_ct_stereo_status>
1

> <s_m_source_file>
sdf/inactives_sanitized.sdf

> <i_m_source_file_index>
399

> <i_lp_mmshare_version>
49012

> <i_f3d_flags>
0

> <s_epik_input>
W0NIM11DKFtDSDNdKShbQ0gzXSlPQyg9TylbTkhdW0NAQEhdKFtDSDJdW0NIXShbQ0gzXSlbQ0gzXSkvWzEzQ0hdPU4vW05IXUMoPU8pTjFbQ0gyXVtDSDJdT1tDSDJdW0NIMl0x

> <s_epik_cmdline>
J2VwaWtfcHl0aG9uJywgJy1waHQnLCAnMC41JywgJy1waCcsICc3LjUnLCAnLW50JywgJy1tYScsICcyMDAnLCAnLWltYWUnLCAnPGluZmlsZS5tYWU+JywgJy1vbWFlJywgJzxvdXRmaWxlLm1hZT4n

> <r_lp_tautomer_probability>
1

> <r_epik_Ionization_Penalty>
  0.0009

> <r_epik_Ionization_Penalty_Charging>
  0.0000

> <r_epik_Ionization_Penalty_Neutral>
  0.0009

> <r_epik_State_Penalty>
 -0.0000

> <r_epik_Charging_Adjusted_Penalty>
0

> <i_epik_Tot_Q>
0

> <i_epik_Tot_abs_Q>
0

> <s_epik_Chemistry_Notes>
This compound has an ester and may undergo hydrolysis at high or low pH. This compound has an imine and may undergo hydrolysis.

> <s_lp_Force_Field>
OPLS3e

> <r_lp_Energy>
23.123427

> <b_lp_Chiralities_Consistent>
1

> <s_lp_Variant>
sdf/inactives_sanitized.sdf:399-1

$$$$
sdf/inactives_sanitized.sdf:400
                    3D
 Schrodinger Suite 2020-1.
 50 51  0  0  1  0            999 V2000
   -2.1601    2.0756   -1.4641 C   0  0  0  0  0  0
    0.0201    0.2023    0.0228 C   0  0  0  0  0  0
   -3.6628    2.3920   -1.5359 C   0  0  0  0  0  0
   -0.3429    1.5054   -0.1155 N   0  0  0  0  0  0
    1.5302   -0.1593    0.0652 C   0  0  2  0  0  0
   -1.7244    1.7942   -0.1823 O   0  0  0  0  0  0
    2.0955   -0.2420   -1.3608 C   0  0  0  0  0  0
    1.5966    3.2561    2.1750 N   0  0  0  0  0  0
    3.1594    0.5867   -1.7389 C   0  0  0  0  0  0
    1.1230    3.0083    1.1491 C   0  0  0  0  0  0
    3.7008    0.5473   -3.0332 C   0  0  0  0  0  0
   -1.4728    2.0857   -2.4918 O   0  0  0  0  0  0
   -0.8132   -0.7070    0.0684 O   0  0  0  0  0  0
    1.8467   -1.4646    0.8568 C   0  0  0  0  0  0
    0.5214    2.6959   -0.1576 C   0  0  0  0  0  0
    6.9585    3.1519   -4.1668 N   0  0  0  0  0  0
   -4.2399    2.3227   -0.3336 F   0  0  0  0  0  0
   -3.8226    3.6184   -2.0339 F   0  0  0  0  0  0
   -4.2491    1.5236   -2.3603 F   0  0  0  0  0  0
    4.8279    1.4477   -3.4249 C   0  0  0  0  0  0
    1.5776   -1.1455   -2.2972 C   0  0  0  0  0  0
    3.1510   -0.3617   -3.9489 C   0  0  0  0  0  0
    2.1015   -1.2028   -3.5853 C   0  0  0  0  0  0
    1.4493   -1.4912    2.3575 C   0  0  0  0  0  0
    6.0181    2.7702   -5.0656 C   0  0  0  0  0  0
    6.8398    2.6860   -2.8992 C   0  0  0  0  0  0
    4.9526    1.9297   -4.7387 C   0  0  0  0  0  0
    5.8022    1.8445   -2.4936 C   0  0  0  0  0  0
    2.2015   -0.4386    3.1936 C   0  0  0  0  0  0
    1.6477   -2.8978    2.9513 C   0  0  0  0  0  0
    2.0549    0.6440    0.5796 H   0  0  0  0  0  0
    3.5578    1.2843   -1.0166 H   0  0  0  0  0  0
    1.3699   -2.3093    0.3554 H   0  0  0  0  0  0
    2.9185   -1.6605    0.7890 H   0  0  0  0  0  0
   -0.0252    3.5842   -0.4773 H   0  0  0  0  0  0
    1.3252    2.5599   -0.8803 H   0  0  0  0  0  0
    0.7634   -1.8033   -2.0294 H   0  0  0  0  0  0
    3.5434   -0.4341   -4.9525 H   0  0  0  0  0  0
    1.6951   -1.9006   -4.3022 H   0  0  0  0  0  0
    0.3848   -1.2688    2.4385 H   0  0  0  0  0  0
    6.1277    3.1545   -6.0690 H   0  0  0  0  0  0
    7.6011    2.9976   -2.1994 H   0  0  0  0  0  0
    4.2312    1.6713   -5.4998 H   0  0  0  0  0  0
    5.7708    1.5006   -1.4703 H   0  0  0  0  0  0
    3.2819   -0.5715    3.1259 H   0  0  0  0  0  0
    1.9262   -0.4998    4.2472 H   0  0  0  0  0  0
    1.9693    0.5735    2.8672 H   0  0  0  0  0  0
    2.6946   -3.2019    2.9187 H   0  0  0  0  0  0
    1.0692   -3.6434    2.4045 H   0  0  0  0  0  0
    1.3234   -2.9381    3.9920 H   0  0  0  0  0  0
  1  3  1  0  0  0
  1  6  1  0  0  0
  1 12  2  0  0  0
  2  4  1  0  0  0
  2  5  1  0  0  0
  2 13  2  0  0  0
  3 17  1  0  0  0
  3 18  1  0  0  0
  3 19  1  0  0  0
  4  6  1  0  0  0
  4 15  1  0  0  0
  5  7  1  0  0  0
  5 14  1  0  0  0
  5 31  1  0  0  0
  7  9  2  0  0  0
  7 21  1  0  0  0
  8 10  3  0  0  0
  9 11  1  0  0  0
  9 32  1  0  0  0
 10 15  1  0  0  0
 11 20  1  0  0  0
 11 22  2  0  0  0
 14 24  1  0  0  0
 14 33  1  0  0  0
 14 34  1  0  0  0
 15 35  1  0  0  0
 15 36  1  0  0  0
 16 26  2  0  0  0
 16 25  1  0  0  0
 20 27  1  0  0  0
 20 28  2  0  0  0
 21 23  2  0  0  0
 21 37  1  0  0  0
 22 23  1  0  0  0
 22 38  1  0  0  0
 23 39  1  0  0  0
 24 29  1  0  0  0
 24 30  1  0  0  0
 24 40  1  0  0  0
 25 27  2  0  0  0
 25 41  1  0  0  0
 26 28  1  0  0  0
 26 42  1  0  0  0
 27 43  1  0  0  0
 28 44  1  0  0  0
 29 45  1  0  0  0
 29 46  1  0  0  0
 29 47  1  0  0  0
 30 48  1  0  0  0
 30 49  1  0  0  0
 30 50  1  0  0  0
M  END
> <chembl_id>
CHEMBL125656

> <chembl_pref_name>
None

> <s_m_source_file>
sdf/inactives_sanitized.sdf

> <i_m_source_file_index>
400

> <i_lp_mmshare_version>
49012

> <i_m_ct_stereo_status>
1

> <i_f3d_flags>
0

> <s_epik_input>
RkMoRikoRilDKD1PKU9OKFtDSDJdQyNOKUMoPU8pW0NAQEhdKFtDSDJdW0NIXShbQ0gzXSlbQ0gzXSljMVtjSF1jKFtjSF1bY0hdW2NIXTEpLWMyW2NIXVtjSF1uW2NIXVtjSF0y

> <s_epik_cmdline>
J2VwaWtfcHl0aG9uJywgJy1waHQnLCAnMC41JywgJy1waCcsICc3LjUnLCAnLW50JywgJy1tYScsICcyMDAnLCAnLWltYWUnLCAnPGluZmlsZS5tYWU+JywgJy1vbWFlJywgJzxvdXRmaWxlLm1hZT4n

> <r_lp_tautomer_probability>
1

> <r_epik_Ionization_Penalty>
  0.0032

> <r_epik_Ionization_Penalty_Charging>
  0.0000

> <r_epik_Ionization_Penalty_Neutral>
  0.0032

> <r_epik_State_Penalty>
 -0.0000

> <r_epik_Charging_Adjusted_Penalty>
0

> <i_epik_Tot_Q>
0

> <i_epik_Tot_abs_Q>
0

> <s_epik_Chemistry_Notes>
This compound has a N-S or N-O group and may undergo hydrolysis at high or low pH.

> <s_lp_Force_Field>
OPLS3e

> <r_lp_Energy>
50.931934

> <b_lp_Chiralities_Consistent>
1

> <s_lp_Variant>
sdf/inactives_sanitized.sdf:400-1

$$$$
sdf/inactives_sanitized.sdf:401
                    3D
 Schrodinger Suite 2020-1.
 71 73  0  0  1  0            999 V2000
    2.1323   -0.0344    2.4914 C   0  0  0  0  0  0
   -6.3195    5.2987    9.7113 N   0  0  0  0  0  0
    2.0957   -0.6315    1.2348 N   0  0  0  0  0  0
   -0.0290    0.1424    0.1587 C   0  0  0  0  0  0
    1.5157    0.0669    0.0742 C   0  0  2  0  0  0
   -7.8224    4.2429    8.4164 N   0  0  0  0  0  0
   -6.7471    4.1411    9.2659 C   0  0  0  0  0  0
   -7.1167    6.1883    9.1456 C   0  0  0  0  0  0
   -8.0638    5.5898    8.3277 C   0  0  0  0  0  0
    1.7601    1.1093    2.7687 O   0  0  0  0  0  0
   -0.6757   -0.8476    0.5063 O   0  0  0  0  0  0
    2.6396   -0.9132    3.3758 O   0  0  0  0  0  0
    1.9887   -0.6761   -1.2063 C   0  0  0  0  0  0
   -0.5813    1.3199   -0.1796 N   0  0  0  0  0  0
   -4.6128    2.2865    2.6092 C   0  0  0  0  0  0
   -3.9495    2.1259    1.3795 N   0  0  0  0  0  0
   -6.0494    2.6138    4.9983 C   0  0  0  0  0  0
    2.7776   -0.5642    4.7473 C   0  0  0  0  0  0
   -5.9874    2.5272    2.5766 C   0  0  0  0  0  0
   -3.9582    2.2142    3.8459 C   0  0  0  0  0  0
   -4.6760    2.3747    5.0276 C   0  0  0  0  0  0
   -6.7038    2.6918    3.7595 C   0  0  0  0  0  0
   -8.5240    3.1653    7.7333 C   0  0  0  0  0  0
   -6.6745    2.7562    6.2217 O   0  0  0  0  0  0
    3.3229   -1.7508    5.5183 C   0  0  0  0  0  0
   -8.0705    3.0447    6.2683 C   0  0  0  0  0  0
    1.6842    0.0336   -2.5491 C   0  0  0  0  0  0
   -2.0119    1.6093   -0.1167 C   0  0  0  0  0  0
   -2.5517    1.7128    1.3224 C   0  0  0  0  0  0
    4.7032   -1.9203    5.6485 C   0  0  0  0  0  0
    2.4421   -2.6701    6.0929 C   0  0  0  0  0  0
    2.0544   -0.8679   -3.7467 C   0  0  0  0  0  0
    2.3414    1.4277   -2.6436 C   0  0  0  0  0  0
    5.2033   -3.0104    6.3561 C   0  0  0  0  0  0
    2.9430   -3.7598    6.8003 C   0  0  0  0  0  0
    4.3210   -3.9246    6.9290 C   0  0  0  0  0  0
    2.3331   -1.6085    1.1440 H   0  0  0  0  0  0
    1.9414    1.0731    0.0578 H   0  0  0  0  0  0
   -6.3341    3.1713    9.5015 H   0  0  0  0  0  0
   -7.0052    7.2478    9.3238 H   0  0  0  0  0  0
   -8.8589    5.9841    7.7120 H   0  0  0  0  0  0
    3.0681   -0.8325   -1.1549 H   0  0  0  0  0  0
    1.5486   -1.6757   -1.2238 H   0  0  0  0  0  0
    0.0212    2.0771   -0.4683 H   0  0  0  0  0  0
   -4.5252    1.9156    0.5767 H   0  0  0  0  0  0
    3.4505    0.2877    4.8611 H   0  0  0  0  0  0
    1.8156   -0.2660    5.1684 H   0  0  0  0  0  0
   -6.5102    2.5889    1.6328 H   0  0  0  0  0  0
   -2.8965    2.0289    3.9113 H   0  0  0  0  0  0
   -4.1610    2.3125    5.9752 H   0  0  0  0  0  0
   -7.7653    2.8758    3.6947 H   0  0  0  0  0  0
   -8.3451    2.2324    8.2699 H   0  0  0  0  0  0
   -9.5948    3.3648    7.7928 H   0  0  0  0  0  0
   -8.6314    2.2404    5.7893 H   0  0  0  0  0  0
   -8.2949    3.9672    5.7292 H   0  0  0  0  0  0
    0.6053    0.1815   -2.6075 H   0  0  0  0  0  0
   -2.1772    2.5551   -0.6344 H   0  0  0  0  0  0
   -2.5752    0.8656   -0.6842 H   0  0  0  0  0  0
   -1.9539    2.4186    1.9008 H   0  0  0  0  0  0
   -2.4620    0.7502    1.8280 H   0  0  0  0  0  0
    5.3863   -1.2118    5.2026 H   0  0  0  0  0  0
    1.3741   -2.5423    5.9911 H   0  0  0  0  0  0
    2.8770   -0.4667   -4.3386 H   0  0  0  0  0  0
    1.2025   -0.9904   -4.4162 H   0  0  0  0  0  0
    2.3571   -1.8664   -3.4298 H   0  0  0  0  0  0
    3.1359    1.5562   -1.9080 H   0  0  0  0  0  0
    1.6039    2.2113   -2.4673 H   0  0  0  0  0  0
    2.7794    1.6214   -3.6227 H   0  0  0  0  0  0
    6.2696   -3.1465    6.4601 H   0  0  0  0  0  0
    2.2668   -4.4738    7.2470 H   0  0  0  0  0  0
    4.7092   -4.7698    7.4782 H   0  0  0  0  0  0
  1  3  1  0  0  0
  1 10  2  0  0  0
  1 12  1  0  0  0
  2  7  2  0  0  0
  2  8  1  0  0  0
  3  5  1  0  0  0
  3 37  1  0  0  0
  4  5  1  0  0  0
  4 11  2  0  0  0
  4 14  1  0  0  0
  5 13  1  0  0  0
  5 38  1  0  0  0
  6 23  1  0  0  0
  6  7  1  0  0  0
  6  9  1  0  0  0
  7 39  1  0  0  0
  8  9  2  0  0  0
  8 40  1  0  0  0
  9 41  1  0  0  0
 12 18  1  0  0  0
 13 27  1  0  0  0
 13 42  1  0  0  0
 13 43  1  0  0  0
 14 28  1  0  0  0
 14 44  1  0  0  0
 15 16  1  0  0  0
 15 19  2  0  0  0
 15 20  1  0  0  0
 16 29  1  0  0  0
 16 45  1  0  0  0
 17 21  1  0  0  0
 17 24  1  0  0  0
 17 22  2  0  0  0
 18 25  1  0  0  0
 18 46  1  0  0  0
 18 47  1  0  0  0
 19 22  1  0  0  0
 19 48  1  0  0  0
 20 21  2  0  0  0
 20 49  1  0  0  0
 21 50  1  0  0  0
 22 51  1  0  0  0
 23 26  1  0  0  0
 23 52  1  0  0  0
 23 53  1  0  0  0
 24 26  1  0  0  0
 25 30  2  0  0  0
 25 31  1  0  0  0
 26 54  1  0  0  0
 26 55  1  0  0  0
 27 32  1  0  0  0
 27 33  1  0  0  0
 27 56  1  0  0  0
 28 29  1  0  0  0
 28 57  1  0  0  0
 28 58  1  0  0  0
 29 59  1  0  0  0
 29 60  1  0  0  0
 30 34  1  0  0  0
 30 61  1  0  0  0
 31 35  2  0  0  0
 31 62  1  0  0  0
 32 63  1  0  0  0
 32 64  1  0  0  0
 32 65  1  0  0  0
 33 66  1  0  0  0
 33 67  1  0  0  0
 33 68  1  0  0  0
 34 36  2  0  0  0
 34 69  1  0  0  0
 35 36  1  0  0  0
 35 70  1  0  0  0
 36 71  1  0  0  0
M  END
> <chembl_id>
CHEMBL61329

> <chembl_pref_name>
None

> <i_m_ct_stereo_status>
1

> <s_m_source_file>
sdf/inactives_sanitized.sdf

> <i_m_source_file_index>
401

> <i_lp_mmshare_version>
49012

> <i_f3d_flags>
0

> <s_epik_input>
W2NIXTFbY0hdW2NIXVtjSF1bY0hdYzFbQ0gyXU9DKD1PKVtOSF1bQ0BASF0oW0NIMl1bQ0hdKFtDSDNdKVtDSDNdKUMoPU8pW05IXVtDSDJdW0NIMl1bTkhdYzJbY0hdW2NIXWMoW2NIXVtjSF0yKU9bQ0gyXVtDSDJdbjNbY0hdbltjSF1bY0hdMw==

> <s_epik_cmdline>
J2VwaWtfcHl0aG9uJywgJy1waHQnLCAnMC41JywgJy1waCcsICc3LjUnLCAnLW50JywgJy1tYScsICcyMDAnLCAnLWltYWUnLCAnPGluZmlsZS5tYWU+JywgJy1vbWFlJywgJzxvdXRmaWxlLm1hZT4n

> <r_lp_tautomer_probability>
1

> <r_epik_Ionization_Penalty>
  0.2019

> <r_epik_Ionization_Penalty_Charging>
  0.1991

> <r_epik_Ionization_Penalty_Neutral>
  0.0027

> <r_epik_State_Penalty>
  0.1889

> <r_epik_Charging_Adjusted_Penalty>
0.388076832838535

> <i_epik_Tot_Q>
0

> <i_epik_Tot_abs_Q>
0

> <s_epik_Chemistry_Notes>
This compound has an ester and may undergo hydrolysis at high or low pH.

> <s_lp_Force_Field>
OPLS3e

> <r_lp_Energy>
30.252387

> <b_lp_Chiralities_Consistent>
1

> <s_lp_Variant>
sdf/inactives_sanitized.sdf:401-1

$$$$
sdf/inactives_sanitized.sdf:402
                    3D
 Schrodinger Suite 2020-1.
 65 67  0  0  1  0            999 V2000
    0.5113    1.0118   -4.9849 C   0  0  0  0  0  0
   -0.1342   -0.1897   -4.6994 C   0  0  0  0  0  0
   -0.1811   -0.6600   -3.3900 C   0  0  0  0  0  0
    0.4085    0.0647   -2.3533 C   0  0  0  0  0  0
    1.0438    1.2827   -2.6436 C   0  0  0  0  0  0
    1.0904    1.7544   -3.9524 C   0  0  0  0  0  0
    0.3093   -0.4873   -1.0867 O   0  0  0  0  0  0
    0.9389    0.1271    0.0509 C   0  0  2  0  0  0
    2.4720   -0.0806    0.0345 C   0  0  0  0  0  0
    2.9564   -1.1143   -0.6803 N   0  0  0  0  0  0
    3.1885    0.6877    0.6776 O   0  0  0  0  0  0
    0.3190   -0.4871    1.3307 C   0  0  0  0  0  0
   -1.2161   -0.3234    1.4676 C   0  0  0  0  0  0
   -1.6580    1.1512    1.5504 C   0  0  0  0  0  0
   -1.7477   -1.1187    2.6741 C   0  0  0  0  0  0
    4.3674   -1.4859   -0.8047 C   0  0  0  0  0  0
    4.8729   -2.4084    0.3223 C   0  0  0  0  0  0
    4.9608   -1.7543    1.6242 N   0  0  0  0  0  0
    5.4290   -2.4322    2.7625 C   0  0  0  0  0  0
    5.2866   -1.7961    3.9963 C   0  0  0  0  0  0
    5.7336   -2.4115    5.1627 C   0  0  0  0  0  0
    6.3320   -3.6797    5.1084 C   0  0  0  0  0  0
    6.4718   -4.3123    3.8732 C   0  0  0  0  0  0
    6.0269   -3.6975    2.7062 C   0  0  0  0  0  0
    6.8054   -4.3665    6.2101 O   0  0  0  0  0  0
    6.7052   -3.7676    7.4978 C   0  0  0  0  0  0
    0.5260    1.4634   -6.2857 O   0  0  0  0  0  0
    1.7120    1.7873   -6.9145 C   0  0  0  0  0  0
    2.9356    1.1777   -6.5983 C   0  0  0  0  0  0
    4.0926    1.5354   -7.2854 C   0  0  0  0  0  0
    4.0276    2.4930   -8.2948 C   0  0  0  0  0  0
    2.8151    3.0935   -8.6256 C   0  0  0  0  0  0
    1.6585    2.7357   -7.9375 C   0  0  0  0  0  0
   -0.5959   -0.7588   -5.4931 H   0  0  0  0  0  0
   -0.6792   -1.5949   -3.1781 H   0  0  0  0  0  0
    1.5069    1.8780   -1.8723 H   0  0  0  0  0  0
    1.5776    2.6945   -4.1664 H   0  0  0  0  0  0
    0.7315    1.1975    0.0647 H   0  0  0  0  0  0
    2.2999   -1.6841   -1.1946 H   0  0  0  0  0  0
    0.5595   -1.5522    1.3611 H   0  0  0  0  0  0
    0.7940   -0.0514    2.2121 H   0  0  0  0  0  0
   -1.6814   -0.7525    0.5788 H   0  0  0  0  0  0
   -1.1839    1.6636    2.3884 H   0  0  0  0  0  0
   -2.7376    1.2325    1.6820 H   0  0  0  0  0  0
   -1.4108    1.6986    0.6411 H   0  0  0  0  0  0
   -1.3320   -0.7477    3.6119 H   0  0  0  0  0  0
   -1.4937   -2.1763    2.5947 H   0  0  0  0  0  0
   -2.8341   -1.0526    2.7445 H   0  0  0  0  0  0
    4.9868   -0.5878   -0.8587 H   0  0  0  0  0  0
    4.4980   -1.9889   -1.7631 H   0  0  0  0  0  0
    4.2452   -3.2979    0.3963 H   0  0  0  0  0  0
    5.8685   -2.7734    0.0675 H   0  0  0  0  0  0
    4.3517   -0.9627    1.7793 H   0  0  0  0  0  0
    4.8289   -0.8189    4.0587 H   0  0  0  0  0  0
    5.6080   -1.8886    6.0986 H   0  0  0  0  0  0
    6.9304   -5.2888    3.8179 H   0  0  0  0  0  0
    6.1539   -4.2182    1.7691 H   0  0  0  0  0  0
    7.1276   -4.4425    8.2423 H   0  0  0  0  0  0
    5.6658   -3.5819    7.7730 H   0  0  0  0  0  0
    7.2624   -2.8308    7.5479 H   0  0  0  0  0  0
    2.9939    0.4263   -5.8246 H   0  0  0  0  0  0
    5.0354    1.0692   -7.0394 H   0  0  0  0  0  0
    4.9247    2.7695   -8.8290 H   0  0  0  0  0  0
    2.7716    3.8313   -9.4132 H   0  0  0  0  0  0
    0.7173    3.1984   -8.1961 H   0  0  0  0  0  0
  1  6  2  0  0  0
  1 27  1  0  0  0
  1  2  1  0  0  0
  2  3  2  0  0  0
  2 34  1  0  0  0
  3  4  1  0  0  0
  3 35  1  0  0  0
  4  5  2  0  0  0
  4  7  1  0  0  0
  5  6  1  0  0  0
  5 36  1  0  0  0
  6 37  1  0  0  0
  7  8  1  0  0  0
  8  9  1  0  0  0
  8 12  1  0  0  0
  8 38  1  0  0  0
  9 10  1  0  0  0
  9 11  2  0  0  0
 10 16  1  0  0  0
 10 39  1  0  0  0
 12 13  1  0  0  0
 12 40  1  0  0  0
 12 41  1  0  0  0
 13 14  1  0  0  0
 13 15  1  0  0  0
 13 42  1  0  0  0
 14 43  1  0  0  0
 14 44  1  0  0  0
 14 45  1  0  0  0
 15 46  1  0  0  0
 15 47  1  0  0  0
 15 48  1  0  0  0
 16 17  1  0  0  0
 16 49  1  0  0  0
 16 50  1  0  0  0
 17 18  1  0  0  0
 17 51  1  0  0  0
 17 52  1  0  0  0
 18 19  1  0  0  0
 18 53  1  0  0  0
 19 20  2  0  0  0
 19 24  1  0  0  0
 20 21  1  0  0  0
 20 54  1  0  0  0
 21 22  2  0  0  0
 21 55  1  0  0  0
 22 23  1  0  0  0
 22 25  1  0  0  0
 23 24  2  0  0  0
 23 56  1  0  0  0
 24 57  1  0  0  0
 25 26  1  0  0  0
 26 58  1  0  0  0
 26 59  1  0  0  0
 26 60  1  0  0  0
 27 28  1  0  0  0
 28 29  2  0  0  0
 28 33  1  0  0  0
 29 30  1  0  0  0
 29 61  1  0  0  0
 30 31  2  0  0  0
 30 62  1  0  0  0
 31 32  1  0  0  0
 31 63  1  0  0  0
 32 33  2  0  0  0
 32 64  1  0  0  0
 33 65  1  0  0  0
M  END
> <chembl_id>
CHEMBL203176

> <chembl_pref_name>
None

> <s_m_source_file>
sdf/inactives_sanitized.sdf

> <i_m_source_file_index>
402

> <i_lp_mmshare_version>
49012

> <i_m_ct_stereo_status>
1

> <i_f3d_flags>
0

> <s_epik_input>
W2NIXTFbY0hdW2NIXVtjSF1bY0hdYzFPYzJbY0hdW2NIXWMoW2NIXVtjSF0yKU9bQ0BASF0oW0NIMl1bQ0hdKFtDSDNdKVtDSDNdKUMoPU8pW05IXVtDSDJdW0NIMl1bTkhdYzNbY0hdW2NIXWMoW2NIXVtjSF0zKU9bQ0gzXQ==

> <s_epik_cmdline>
J2VwaWtfcHl0aG9uJywgJy1waHQnLCAnMC41JywgJy1waCcsICc3LjUnLCAnLW50JywgJy1tYScsICcyMDAnLCAnLWltYWUnLCAnPGluZmlsZS5tYWU+JywgJy1vbWFlJywgJzxvdXRmaWxlLm1hZT4n

> <r_lp_tautomer_probability>
1

> <r_epik_Ionization_Penalty>
  0.0016

> <r_epik_Ionization_Penalty_Charging>
  0.0000

> <r_epik_Ionization_Penalty_Neutral>
  0.0016

> <r_epik_State_Penalty>
 -0.0000

> <r_epik_Charging_Adjusted_Penalty>
0

> <i_epik_Tot_Q>
0

> <i_epik_Tot_abs_Q>
0

> <s_lp_Force_Field>
OPLS3e

> <r_lp_Energy>
46.082853

> <b_lp_Chiralities_Consistent>
1

> <s_lp_Variant>
sdf/inactives_sanitized.sdf:402-1

$$$$
sdf/inactives_sanitized.sdf:403
                    3D
 Schrodinger Suite 2020-1.
 29 29  0  0  1  0            999 V2000
   -1.1465   -1.8603    1.2112 N   0  0  0  0  0  0
   -0.7591   -1.3699   -0.0000 C   0  0  0  0  0  0
   -1.1460   -1.8603   -1.2114 N   0  0  0  0  0  0
   -1.9655   -2.9450   -1.1915 C   0  0  0  0  0  0
   -2.4068   -3.5311   -0.0004 C   0  0  0  0  0  0
   -1.9659   -2.9450    1.1908 C   0  0  0  0  0  0
   -2.3831   -3.4861    2.5445 C   0  0  0  0  0  0
   -2.3824   -3.4861   -2.5454 C   0  0  0  0  0  0
    0.0450   -0.2299    0.0003 N   0  0  0  0  0  0
    1.4419   -0.1242    0.0003 C   0  0  0  0  0  0
   -0.7658    0.8809   -0.0004 C   0  0  0  0  0  0
   -1.4908    1.7861   -0.0003 N   0  0  0  0  0  0
    2.2769   -1.2537    0.0000 N   0  0  0  0  0  0
    1.8964   -2.6806    0.0001 C   0  0  0  0  0  0
    3.7618   -1.2011   -0.0001 C   0  0  0  0  0  0
    2.1304    1.4297    0.0006 S   0  0  0  0  0  0
   -3.0600   -4.3919   -0.0005 H   0  0  0  0  0  0
   -2.9607   -4.4062    2.4483 H   0  0  0  0  0  0
   -2.9967   -2.7551    3.0721 H   0  0  0  0  0  0
   -1.5071   -3.7028    3.1570 H   0  0  0  0  0  0
   -2.9601   -4.4062   -2.4495 H   0  0  0  0  0  0
   -1.5062   -3.7026   -3.1577 H   0  0  0  0  0  0
   -2.9958   -2.7549   -3.0730 H   0  0  0  0  0  0
    0.8628   -2.9788    0.0017 H   0  0  0  0  0  0
    2.3321   -3.1658    0.8747 H   0  0  0  0  0  0
    2.3297   -3.1651   -0.8761 H   0  0  0  0  0  0
    4.2291   -0.2191   -0.0002 H   0  0  0  0  0  0
    4.1501   -1.7187   -0.8785 H   0  0  0  0  0  0
    4.1504   -1.7187    0.8781 H   0  0  0  0  0  0
  1  2  2  0  0  0
  1  6  1  0  0  0
  2  3  1  0  0  0
  2  9  1  0  0  0
  3  4  2  0  0  0
  4  5  1  0  0  0
  4  8  1  0  0  0
  5  6  2  0  0  0
  5 17  1  0  0  0
  6  7  1  0  0  0
  7 18  1  0  0  0
  7 19  1  0  0  0
  7 20  1  0  0  0
  8 21  1  0  0  0
  8 22  1  0  0  0
  8 23  1  0  0  0
  9 10  1  0  0  0
  9 11  1  0  0  0
 10 13  1  0  0  0
 10 16  2  0  0  0
 11 12  3  0  0  0
 13 14  1  0  0  0
 13 15  1  0  0  0
 14 24  1  0  0  0
 14 25  1  0  0  0
 14 26  1  0  0  0
 15 27  1  0  0  0
 15 28  1  0  0  0
 15 29  1  0  0  0
M  END
> <chembl_id>
CHEMBL2316609

> <chembl_pref_name>
None

> <s_m_source_file>
sdf/inactives_sanitized.sdf

> <i_m_source_file_index>
403

> <i_lp_mmshare_version>
49012

> <i_m_ct_stereo_status>
1

> <i_f3d_flags>
0

> <s_epik_input>
bjFjKFtDSDNdKVtjSF1jKFtDSDNdKW5jMU4oQyNOKUMoPVMpTihbQ0gzXSlbQ0gzXQ==

> <s_epik_cmdline>
J2VwaWtfcHl0aG9uJywgJy1waHQnLCAnMC41JywgJy1waCcsICc3LjUnLCAnLW50JywgJy1tYScsICcyMDAnLCAnLWltYWUnLCAnPGluZmlsZS5tYWU+JywgJy1vbWFlJywgJzxvdXRmaWxlLm1hZT4n

> <r_lp_tautomer_probability>
1

> <r_epik_Ionization_Penalty>
  0.0000

> <r_epik_Ionization_Penalty_Charging>
  0.0000

> <r_epik_Ionization_Penalty_Neutral>
  0.0000

> <r_epik_State_Penalty>
 -0.0000

> <r_epik_Charging_Adjusted_Penalty>
0

> <i_epik_Tot_Q>
0

> <i_epik_Tot_abs_Q>
0

> <s_lp_Force_Field>
OPLS3e

> <r_lp_Energy>
57.895917

> <b_lp_Chiralities_Consistent>
1

> <s_lp_Variant>
sdf/inactives_sanitized.sdf:403-1

$$$$
sdf/inactives_sanitized.sdf:404
                    3D
 Schrodinger Suite 2020-1.
 77 78  0  0  1  0            999 V2000
   -5.5130   -7.2729    0.3196 C   0  0  0  0  0  0
   -6.6484   -7.3136   -0.4890 C   0  0  0  0  0  0
   -6.7307   -6.5031   -1.6208 C   0  0  0  0  0  0
   -5.6796   -5.6468   -1.9366 C   0  0  0  0  0  0
   -4.5325   -5.5883   -1.1325 C   0  0  0  0  0  0
   -4.4648   -6.4152   -0.0022 C   0  0  0  0  0  0
   -3.4092   -4.6608   -1.4677 C   0  0  0  0  0  0
   -3.6625   -3.4065   -2.0386 C   0  0  0  0  0  0
   -2.6202   -2.5327   -2.3316 C   0  0  0  0  0  0
   -1.2987   -2.8959   -2.0556 C   0  0  0  0  0  0
   -1.0336   -4.1513   -1.5062 C   0  0  0  0  0  0
   -2.0792   -5.0217   -1.2122 C   0  0  0  0  0  0
   -8.0006   -8.4145   -0.0782 S   0  0  0  0  0  0
   -7.5692   -9.9932   -1.0143 C   0  0  0  0  0  0
   -7.9253   -8.6912    1.3609 O   0  0  0  0  0  0
   -9.2233   -7.8479   -0.6588 O   0  0  0  0  0  0
   -0.1380   -1.9352   -2.3380 C   0  0  2  0  0  0
   -0.3975   -0.5831   -1.8189 N   0  0  1  0  0  0
    0.2184   -1.8643   -3.8443 C   0  0  0  0  0  0
    1.2829   -1.0869   -4.0532 F   0  0  0  0  0  0
    0.5201   -3.0713   -4.3249 F   0  0  0  0  0  0
   -0.7796   -1.3779   -4.5848 F   0  0  0  0  0  0
   -0.0345   -0.2548   -0.4124 C   0  0  2  0  0  0
    1.5076   -0.1501   -0.3328 C   0  0  0  0  0  0
   -0.6364   -1.1653    0.6962 C   0  0  0  0  0  0
   -2.1602   -0.9946    0.9034 C   0  0  0  0  0  0
   -2.5141    0.3708    1.5344 C   0  0  0  0  0  0
   -2.7613   -2.1855    1.6830 C   0  0  0  0  0  0
    2.1749   -1.1256    0.0176 O   0  0  0  0  0  0
    2.0355    1.0322   -0.6943 N   0  0  0  0  0  0
    3.4656    1.3500   -0.7027 C   0  0  1  0  0  0
    3.7759    2.3226   -1.8704 C   0  0  0  0  0  0
    3.5156    1.7275   -3.2669 C   0  0  0  0  0  0
    3.8589    2.8435   -4.6558 S   0  0  0  0  0  0
    5.6703    2.8944   -4.6040 C   0  0  0  0  0  0
    3.8764    1.9321    0.6707 C   0  0  0  0  0  0
    3.4465    3.0617    0.9302 O   0  0  0  0  0  0
    4.6228    1.1806    1.4450 N   0  5  0  0  0  0
    5.0506    1.6851    2.8688 S   0  0  0  0  0  0
    6.0910    0.2503    3.5133 C   0  0  0  0  0  0
    5.9761    2.8234    2.8233 O   0  0  0  0  0  0
    3.9266    1.7802    3.8078 O   0  0  0  0  0  0
   -5.4388   -7.8986    1.1970 H   0  0  0  0  0  0
   -7.6034   -6.5329   -2.2568 H   0  0  0  0  0  0
   -5.7619   -5.0322   -2.8211 H   0  0  0  0  0  0
   -3.6011   -6.3896    0.6459 H   0  0  0  0  0  0
   -4.6743   -3.0890   -2.2432 H   0  0  0  0  0  0
   -2.8429   -1.5658   -2.7593 H   0  0  0  0  0  0
   -0.0178   -4.4509   -1.2925 H   0  0  0  0  0  0
   -1.8437   -5.9854   -0.7851 H   0  0  0  0  0  0
   -8.3412  -10.7375   -0.8213 H   0  0  0  0  0  0
   -6.6036  -10.3594   -0.6665 H   0  0  0  0  0  0
   -7.5235   -9.7720   -2.0802 H   0  0  0  0  0  0
    0.7483   -2.3236   -1.8349 H   0  0  0  0  0  0
   -0.0751    0.1236   -2.4649 H   0  0  0  0  0  0
   -0.3997    0.7537   -0.2107 H   0  0  0  0  0  0
   -0.4191   -2.2055    0.4561 H   0  0  0  0  0  0
   -0.1459   -0.9772    1.6534 H   0  0  0  0  0  0
   -2.6255   -1.0111   -0.0809 H   0  0  0  0  0  0
   -1.6254    0.9210    1.8446 H   0  0  0  0  0  0
   -3.1523    0.2820    2.4131 H   0  0  0  0  0  0
   -3.0463    0.9974    0.8183 H   0  0  0  0  0  0
   -3.2117   -1.8911    2.6306 H   0  0  0  0  0  0
   -2.0147   -2.9458    1.9146 H   0  0  0  0  0  0
   -3.5397   -2.6745    1.0959 H   0  0  0  0  0  0
    1.4200    1.7852   -0.9651 H   0  0  0  0  0  0
    4.0417    0.4392   -0.8885 H   0  0  0  0  0  0
    3.2011    3.2442   -1.7613 H   0  0  0  0  0  0
    4.8200    2.6309   -1.8073 H   0  0  0  0  0  0
    4.1045    0.8195   -3.4005 H   0  0  0  0  0  0
    2.4706    1.4284   -3.3491 H   0  0  0  0  0  0
    6.0514    3.4840   -5.4376 H   0  0  0  0  0  0
    6.0826    1.8879   -4.6764 H   0  0  0  0  0  0
    6.0191    3.3494   -3.6775 H   0  0  0  0  0  0
    6.4464    0.4952    4.5138 H   0  0  0  0  0  0
    6.9384    0.0971    2.8456 H   0  0  0  0  0  0
    5.4751   -0.6482    3.5475 H   0  0  0  0  0  0
  1  6  2  0  0  0
  1  2  1  0  0  0
  1 43  1  0  0  0
  2  3  2  0  0  0
  2 13  1  0  0  0
  3  4  1  0  0  0
  3 44  1  0  0  0
  4  5  2  0  0  0
  4 45  1  0  0  0
  5  6  1  0  0  0
  5  7  1  0  0  0
  6 46  1  0  0  0
  7 12  1  0  0  0
  7  8  2  0  0  0
  8  9  1  0  0  0
  8 47  1  0  0  0
  9 10  2  0  0  0
  9 48  1  0  0  0
 10 11  1  0  0  0
 10 17  1  0  0  0
 11 12  2  0  0  0
 11 49  1  0  0  0
 12 50  1  0  0  0
 13 14  1  0  0  0
 13 15  2  0  0  0
 13 16  2  0  0  0
 14 51  1  0  0  0
 14 52  1  0  0  0
 14 53  1  0  0  0
 17 18  1  0  0  0
 17 19  1  0  0  0
 17 54  1  0  0  0
 18 23  1  0  0  0
 18 55  1  0  0  0
 19 21  1  0  0  0
 19 22  1  0  0  0
 19 20  1  0  0  0
 23 24  1  0  0  0
 23 25  1  0  0  0
 23 56  1  0  0  0
 24 29  2  0  0  0
 24 30  1  0  0  0
 25 26  1  0  0  0
 25 57  1  0  0  0
 25 58  1  0  0  0
 26 27  1  0  0  0
 26 28  1  0  0  0
 26 59  1  0  0  0
 27 60  1  0  0  0
 27 61  1  0  0  0
 27 62  1  0  0  0
 28 63  1  0  0  0
 28 64  1  0  0  0
 28 65  1  0  0  0
 30 31  1  0  0  0
 30 66  1  0  0  0
 31 32  1  0  0  0
 31 36  1  0  0  0
 31 67  1  0  0  0
 32 33  1  0  0  0
 32 68  1  0  0  0
 32 69  1  0  0  0
 33 34  1  0  0  0
 33 70  1  0  0  0
 33 71  1  0  0  0
 34 35  1  0  0  0
 35 72  1  0  0  0
 35 73  1  0  0  0
 35 74  1  0  0  0
 36 37  2  0  0  0
 36 38  1  0  0  0
 38 39  1  0  0  0
 39 40  1  0  0  0
 39 41  2  0  0  0
 39 42  2  0  0  0
 40 75  1  0  0  0
 40 76  1  0  0  0
 40 77  1  0  0  0
M  CHG  1  38  -1
M  END
> <chembl_id>
CHEMBL248902

> <chembl_pref_name>
None

> <i_m_ct_stereo_status>
1

> <s_m_source_file>
sdf/inactives_sanitized.sdf

> <i_m_source_file_index>
404

> <i_lp_mmshare_version>
49012

> <i_f3d_flags>
0

> <s_epik_input>
W0NIM11TKD1PKSg9TyljMVtjSF1bY0hdYyhbY0hdW2NIXTEpLWMyW2NIXVtjSF1jKFtjSF1bY0hdMilbQ0BASF0oQyhGKShGKUYpW05IXVtDQEBIXShbQ0gyXVtDSF0oW0NIM10pW0NIM10pQyg9TylbTkhdW0NAQEhdKFtDSDJdW0NIMl1TW0NIM10pQyg9TylbTkhdUyg9TykoPU8pW0NIM10=

> <s_epik_cmdline>
J2VwaWtfcHl0aG9uJywgJy1waHQnLCAnMC41JywgJy1waCcsICc3LjUnLCAnLW50JywgJy1tYScsICcyMDAnLCAnLWltYWUnLCAnPGluZmlsZS5tYWU+JywgJy1vbWFlJywgJzxvdXRmaWxlLm1hZT4n

> <r_lp_tautomer_probability>
1

> <r_epik_Ionization_Penalty>
  0.0021

> <r_epik_Ionization_Penalty_Charging>
  0.0016

> <r_epik_Ionization_Penalty_Neutral>
  0.0005

> <r_epik_State_Penalty>
 -0.0000

> <r_epik_Charging_Adjusted_Penalty>
0.00158603586218537

> <i_epik_Tot_Q>
-1

> <i_epik_Tot_abs_Q>
1

> <s_lp_Force_Field>
OPLS3e

> <r_lp_Energy>
29.139094

> <b_lp_Chiralities_Consistent>
1

> <s_lp_Variant>
sdf/inactives_sanitized.sdf:404-1

$$$$
sdf/inactives_sanitized.sdf:405
                    3D
 Schrodinger Suite 2020-1.
 54 56  0  0  1  0            999 V2000
    2.2564    3.8881   -3.3670 C   0  0  0  0  0  0
    3.1052    3.0746   -2.4060 C   0  0  0  0  0  0
    2.8100    4.5332   -2.1243 C   0  0  0  0  0  0
   -0.7933    4.2400   -0.2766 C   0  0  0  0  0  0
   -1.1337    4.6226   -1.5719 C   0  0  0  0  0  0
   -1.4736    3.6664   -2.5258 C   0  0  0  0  0  0
   -1.4684    2.3170   -2.1838 C   0  0  0  0  0  0
   -1.1321    1.9229   -0.8827 C   0  0  0  0  0  0
   -0.7949    2.8912    0.0684 C   0  0  0  0  0  0
   -1.1285    0.4429   -0.4812 C   0  0  2  0  0  0
   -0.1134   -0.3278   -1.2078 N   0  0  1  0  0  0
    1.3212   -0.0249   -0.9794 C   0  0  2  0  0  0
    1.8205    0.9896   -2.0343 C   0  0  0  0  0  0
    2.4591    2.0736   -1.5626 N   0  0  0  0  0  0
    1.6344    0.7736   -3.2329 O   0  0  0  0  0  0
    4.4525    2.7034   -2.8720 C   0  0  0  0  0  0
    5.5109    2.4114   -3.2372 N   0  0  0  0  0  0
    2.2634   -1.2611   -0.8798 C   0  0  0  0  0  0
   -2.5158   -0.2378   -0.6279 C   0  0  0  0  0  0
   -2.5053   -1.4671   -0.1106 F   0  0  0  0  0  0
   -3.4548    0.4463    0.0269 F   0  0  0  0  0  0
   -2.9146   -0.3489   -1.8963 F   0  0  0  0  0  0
    1.7224   -2.8383   -1.7907 S   0  0  0  0  0  0
    0.4323   -3.6227   -0.6499 C   0  0  0  0  0  0
    1.0658   -2.4559   -3.0453 O   0  0  0  0  0  0
    2.8747   -3.7448   -1.8300 O   0  0  0  0  0  0
   -0.2111   -4.8479   -1.2797 C   0  0  0  0  0  0
   -1.3554   -4.7265   -2.0802 C   0  0  0  0  0  0
   -1.9304   -5.8626   -2.6545 C   0  0  0  0  0  0
   -1.3671   -7.1195   -2.4335 C   0  0  0  0  0  0
   -0.2275   -7.2436   -1.6393 C   0  0  0  0  0  0
    0.3490   -6.1110   -1.0643 C   0  0  0  0  0  0
   -1.9087   -3.5116   -2.3071 F   0  0  0  0  0  0
   -3.0346   -5.7482   -3.4276 F   0  0  0  0  0  0
   -1.1299    5.9324   -1.9074 F   0  0  0  0  0  0
    2.6781    4.1697   -4.3324 H   0  0  0  0  0  0
    1.1864    3.6932   -3.4252 H   0  0  0  0  0  0
    2.1158    4.7912   -1.3239 H   0  0  0  0  0  0
    3.6143    5.2620   -2.2284 H   0  0  0  0  0  0
   -0.5299    4.9869    0.4579 H   0  0  0  0  0  0
   -1.7315    3.9692   -3.5300 H   0  0  0  0  0  0
   -1.7170    1.5814   -2.9343 H   0  0  0  0  0  0
   -0.5310    2.6023    1.0753 H   0  0  0  0  0  0
   -0.8704    0.3769    0.5773 H   0  0  0  0  0  0
   -0.3483   -1.2956   -1.3781 H   0  0  0  0  0  0
    1.3997    0.4527    0.0005 H   0  0  0  0  0  0
    2.6167    2.1507   -0.5685 H   0  0  0  0  0  0
    3.2460   -1.0300   -1.2954 H   0  0  0  0  0  0
    2.4635   -1.5242    0.1590 H   0  0  0  0  0  0
    0.9169   -3.8651    0.2961 H   0  0  0  0  0  0
   -0.3195   -2.8690   -0.4274 H   0  0  0  0  0  0
   -1.8124   -7.9970   -2.8790 H   0  0  0  0  0  0
    0.2097   -8.2168   -1.4707 H   0  0  0  0  0  0
    1.2344   -6.2169   -0.4542 H   0  0  0  0  0  0
  1  2  1  0  0  0
  1  3  1  0  0  0
  1 36  1  0  0  0
  1 37  1  0  0  0
  2 14  1  0  0  0
  2 16  1  0  0  0
  2  3  1  0  0  0
  3 38  1  0  0  0
  3 39  1  0  0  0
  4  9  2  0  0  0
  4  5  1  0  0  0
  4 40  1  0  0  0
  5  6  2  0  0  0
  5 35  1  0  0  0
  6  7  1  0  0  0
  6 41  1  0  0  0
  7  8  2  0  0  0
  7 42  1  0  0  0
  8 10  1  0  0  0
  8  9  1  0  0  0
  9 43  1  0  0  0
 10 11  1  0  0  0
 10 19  1  0  0  0
 10 44  1  0  0  0
 11 12  1  0  0  0
 11 45  1  0  0  0
 12 13  1  0  0  0
 12 18  1  0  0  0
 12 46  1  0  0  0
 13 14  1  0  0  0
 13 15  2  0  0  0
 14 47  1  0  0  0
 16 17  3  0  0  0
 18 23  1  0  0  0
 18 48  1  0  0  0
 18 49  1  0  0  0
 19 20  1  0  0  0
 19 21  1  0  0  0
 19 22  1  0  0  0
 23 24  1  0  0  0
 23 25  2  0  0  0
 23 26  2  0  0  0
 24 27  1  0  0  0
 24 50  1  0  0  0
 24 51  1  0  0  0
 27 28  2  0  0  0
 27 32  1  0  0  0
 28 29  1  0  0  0
 28 33  1  0  0  0
 29 30  2  0  0  0
 29 34  1  0  0  0
 30 31  1  0  0  0
 30 52  1  0  0  0
 31 32  2  0  0  0
 31 53  1  0  0  0
 32 54  1  0  0  0
M  END
> <chembl_id>
CHEMBL400750

> <chembl_pref_name>
None

> <i_m_ct_stereo_status>
1

> <s_m_source_file>
sdf/inactives_sanitized.sdf

> <i_m_source_file_index>
405

> <i_lp_mmshare_version>
49012

> <i_f3d_flags>
0

> <s_epik_input>
RmMxW2NIXVtjSF1jKFtjSF1bY0hdMSlbQ0BASF0oQyhGKShGKUYpW05IXVtDQEhdKEMoPU8pW05IXUMyKEMjTilbQ0gyXVtDSDJdMilbQ0gyXVMoPU8pKD1PKVtDSDJdYzNjKEYpYyhGKVtjSF1bY0hdW2NIXTM=

> <s_epik_cmdline>
J2VwaWtfcHl0aG9uJywgJy1waHQnLCAnMC41JywgJy1waCcsICc3LjUnLCAnLW50JywgJy1tYScsICcyMDAnLCAnLWltYWUnLCAnPGluZmlsZS5tYWU+JywgJy1vbWFlJywgJzxvdXRmaWxlLm1hZT4n

> <r_lp_tautomer_probability>
1

> <r_epik_Ionization_Penalty>
  0.0002

> <r_epik_Ionization_Penalty_Charging>
  0.0000

> <r_epik_Ionization_Penalty_Neutral>
  0.0002

> <r_epik_State_Penalty>
 -0.0000

> <r_epik_Charging_Adjusted_Penalty>
0

> <i_epik_Tot_Q>
0

> <i_epik_Tot_abs_Q>
0

> <s_lp_Force_Field>
OPLS3e

> <r_lp_Energy>
31.247985

> <b_lp_Chiralities_Consistent>
1

> <s_lp_Variant>
sdf/inactives_sanitized.sdf:405-1

$$$$
sdf/inactives_sanitized.sdf:406
                    3D
 Schrodinger Suite 2020-1.
 44 45  0  0  1  0            999 V2000
    4.5992    2.1353   -3.2954 C   0  0  0  0  0  0
    3.1025    1.9318   -3.1874 C   0  0  0  0  0  0
    3.9373    1.0431   -4.0931 C   0  0  0  0  0  0
   -1.5761    2.8151   -3.0711 C   0  0  0  0  0  0
   -1.3514    4.0998   -2.5824 C   0  0  0  0  0  0
   -1.0208    4.3027   -1.2447 C   0  0  0  0  0  0
   -0.9192    3.2114   -0.3862 C   0  0  0  0  0  0
   -1.1430    1.9173   -0.8661 C   0  0  0  0  0  0
   -1.4716    1.7239   -2.2136 C   0  0  0  0  0  0
   -1.0409    0.7311    0.0993 C   0  0  2  0  0  0
   -0.1867   -0.3512   -0.4027 N   0  0  1  0  0  0
    1.2766   -0.1144   -0.4850 C   0  0  2  0  0  0
    1.6785    0.3695   -1.8981 C   0  0  0  0  0  0
    2.5801    1.3642   -1.9481 N   0  0  0  0  0  0
    1.2058   -0.1732   -2.8986 O   0  0  0  0  0  0
    2.2181    2.9055   -3.8510 C   0  0  0  0  0  0
    1.5268    3.6714   -4.3743 N   0  0  0  0  0  0
    2.1434   -1.3183   -0.0220 C   0  0  0  0  0  0
   -2.4298    0.1684    0.4956 C   0  0  0  0  0  0
   -2.3190   -0.8052    1.4015 F   0  0  0  0  0  0
   -3.1946    1.1163    1.0393 F   0  0  0  0  0  0
   -3.0965   -0.3333   -0.5459 F   0  0  0  0  0  0
    1.3749   -3.0341   -0.2730 S   0  0  0  0  0  0
    2.7456   -4.2125    0.2591 C   0  0  0  0  0  0
    0.2628   -3.1831    0.6718 O   0  0  0  0  0  0
    1.1463   -3.2288   -1.7082 O   0  0  0  0  0  0
    4.9728    3.0135   -3.8225 H   0  0  0  0  0  0
    5.2365    1.8510   -2.4575 H   0  0  0  0  0  0
    4.1160    0.0065   -3.8049 H   0  0  0  0  0  0
    3.8504    1.1642   -5.1734 H   0  0  0  0  0  0
   -1.8271    2.6650   -4.1109 H   0  0  0  0  0  0
   -1.4294    4.9459   -3.2493 H   0  0  0  0  0  0
   -0.8468    5.3023   -0.8749 H   0  0  0  0  0  0
   -0.6682    3.3750    0.6518 H   0  0  0  0  0  0
   -1.6454    0.7286   -2.5965 H   0  0  0  0  0  0
   -0.5793    1.0832    1.0237 H   0  0  0  0  0  0
   -0.4508   -1.2653   -0.0607 H   0  0  0  0  0  0
    1.5170    0.6882    0.2169 H   0  0  0  0  0  0
    2.8684    1.8075   -1.0880 H   0  0  0  0  0  0
    3.0902   -1.3535   -0.5636 H   0  0  0  0  0  0
    2.4220   -1.2185    1.0273 H   0  0  0  0  0  0
    2.3920   -5.2368    0.1453 H   0  0  0  0  0  0
    2.9958   -4.0178    1.3016 H   0  0  0  0  0  0
    3.6188   -4.0476   -0.3715 H   0  0  0  0  0  0
  1  2  1  0  0  0
  1  3  1  0  0  0
  1 27  1  0  0  0
  1 28  1  0  0  0
  2  3  1  0  0  0
  2 14  1  0  0  0
  2 16  1  0  0  0
  3 29  1  0  0  0
  3 30  1  0  0  0
  4  5  2  0  0  0
  4  9  1  0  0  0
  4 31  1  0  0  0
  5  6  1  0  0  0
  5 32  1  0  0  0
  6  7  2  0  0  0
  6 33  1  0  0  0
  7  8  1  0  0  0
  7 34  1  0  0  0
  8  9  2  0  0  0
  8 10  1  0  0  0
  9 35  1  0  0  0
 10 11  1  0  0  0
 10 19  1  0  0  0
 10 36  1  0  0  0
 11 12  1  0  0  0
 11 37  1  0  0  0
 12 13  1  0  0  0
 12 18  1  0  0  0
 12 38  1  0  0  0
 13 14  1  0  0  0
 13 15  2  0  0  0
 14 39  1  0  0  0
 16 17  3  0  0  0
 18 23  1  0  0  0
 18 40  1  0  0  0
 18 41  1  0  0  0
 19 20  1  0  0  0
 19 21  1  0  0  0
 19 22  1  0  0  0
 23 24  1  0  0  0
 23 25  2  0  0  0
 23 26  2  0  0  0
 24 42  1  0  0  0
 24 43  1  0  0  0
 24 44  1  0  0  0
M  END
> <chembl_id>
CHEMBL249507

> <chembl_pref_name>
None

> <i_m_ct_stereo_status>
1

> <s_m_source_file>
sdf/inactives_sanitized.sdf

> <i_m_source_file_index>
406

> <i_lp_mmshare_version>
49012

> <i_f3d_flags>
0

> <s_epik_input>
W0NIMl0xW0NIMl1DMShDI04pW05IXUMoPU8pW0NASF0oW0NIMl1TKD1PKSg9TylbQ0gzXSlbTkhdW0NASF0oQyhGKShGKUYpYzJbY0hdW2NIXVtjSF1bY0hdW2NIXTI=

> <s_epik_cmdline>
J2VwaWtfcHl0aG9uJywgJy1waHQnLCAnMC41JywgJy1waCcsICc3LjUnLCAnLW50JywgJy1tYScsICcyMDAnLCAnLWltYWUnLCAnPGluZmlsZS5tYWU+JywgJy1vbWFlJywgJzxvdXRmaWxlLm1hZT4n

> <r_lp_tautomer_probability>
1

> <r_epik_Ionization_Penalty>
  0.0002

> <r_epik_Ionization_Penalty_Charging>
  0.0000

> <r_epik_Ionization_Penalty_Neutral>
  0.0002

> <r_epik_State_Penalty>
 -0.0000

> <r_epik_Charging_Adjusted_Penalty>
0

> <i_epik_Tot_Q>
0

> <i_epik_Tot_abs_Q>
0

> <s_lp_Force_Field>
OPLS3e

> <r_lp_Energy>
18.563821

> <b_lp_Chiralities_Consistent>
1

> <s_lp_Variant>
sdf/inactives_sanitized.sdf:406-1

$$$$
sdf/inactives_sanitized.sdf:407
                    3D
 Schrodinger Suite 2020-1.
 44 45  0  0  1  0            999 V2000
    4.6802    2.1202   -3.2042 C   0  0  0  0  0  0
    3.1828    1.9045   -3.1375 C   0  0  0  0  0  0
    4.0539    1.0007   -3.9927 C   0  0  0  0  0  0
   -1.4914    2.7476   -3.2019 C   0  0  0  0  0  0
   -1.3150    4.0499   -2.7358 C   0  0  0  0  0  0
   -1.0527    4.2768   -1.3853 C   0  0  0  0  0  0
   -0.9711    3.2018   -0.4997 C   0  0  0  0  0  0
   -1.1466    1.8910   -0.9574 C   0  0  0  0  0  0
   -1.4073    1.6727   -2.3173 C   0  0  0  0  0  0
   -1.0667    0.7260    0.0347 C   0  0  2  0  0  0
   -0.1724   -0.3494   -0.4078 N   0  0  1  0  0  0
    1.2882   -0.0852   -0.4394 C   0  0  2  0  0  0
    1.7369    0.3592   -1.8514 C   0  0  0  0  0  0
    2.6264    1.3648   -1.9003 N   0  0  0  0  0  0
    1.3086   -0.2210   -2.8508 O   0  0  0  0  0  0
    2.3109    2.8515   -3.8539 C   0  0  0  0  0  0
    1.6293    3.5964   -4.4186 N   0  0  0  0  0  0
    2.1588   -1.2546    0.0989 C   0  0  0  0  0  0
   -2.4621    0.1458    0.3790 C   0  0  0  0  0  0
   -2.3763   -0.8112    1.3050 F   0  0  0  0  0  0
   -3.2657    1.0894    0.8718 F   0  0  0  0  0  0
   -3.0731   -0.3837   -0.6828 F   0  0  0  0  0  0
    1.4326   -2.9929   -0.1198 S   0  0  0  0  0  0
    2.8016   -4.1246    0.5094 C   0  0  0  0  0  0
    0.2858   -3.1300    0.7844 O   0  0  0  0  0  0
    1.2661   -3.2427   -1.5550 O   0  0  0  0  0  0
   -0.8781    5.5391   -0.9333 F   0  0  0  0  0  0
    5.0620    2.9879   -3.7428 H   0  0  0  0  0  0
    5.2937    1.8646   -2.3397 H   0  0  0  0  0  0
    4.2334   -0.0259   -3.6714 H   0  0  0  0  0  0
    3.9999    1.0921   -5.0780 H   0  0  0  0  0  0
   -1.6890    2.5708   -4.2488 H   0  0  0  0  0  0
   -1.3761    4.8814   -3.4222 H   0  0  0  0  0  0
   -0.7724    3.3921    0.5449 H   0  0  0  0  0  0
   -1.5441    0.6681   -2.6908 H   0  0  0  0  0  0
   -0.6527    1.1043    0.9711 H   0  0  0  0  0  0
   -0.4327   -1.2619   -0.0587 H   0  0  0  0  0  0
    1.4846    0.7456    0.2429 H   0  0  0  0  0  0
    2.8780    1.8381   -1.0448 H   0  0  0  0  0  0
    3.1265   -1.2897   -0.4045 H   0  0  0  0  0  0
    2.3945   -1.1126    1.1538 H   0  0  0  0  0  0
    2.4701   -5.1589    0.4227 H   0  0  0  0  0  0
    3.0082   -3.8853    1.5521 H   0  0  0  0  0  0
    3.6955   -3.9681   -0.0937 H   0  0  0  0  0  0
  1  2  1  0  0  0
  1  3  1  0  0  0
  1 28  1  0  0  0
  1 29  1  0  0  0
  2  3  1  0  0  0
  2 14  1  0  0  0
  2 16  1  0  0  0
  3 30  1  0  0  0
  3 31  1  0  0  0
  4  5  2  0  0  0
  4  9  1  0  0  0
  4 32  1  0  0  0
  5  6  1  0  0  0
  5 33  1  0  0  0
  6  7  2  0  0  0
  6 27  1  0  0  0
  7  8  1  0  0  0
  7 34  1  0  0  0
  8  9  2  0  0  0
  8 10  1  0  0  0
  9 35  1  0  0  0
 10 11  1  0  0  0
 10 19  1  0  0  0
 10 36  1  0  0  0
 11 12  1  0  0  0
 11 37  1  0  0  0
 12 13  1  0  0  0
 12 18  1  0  0  0
 12 38  1  0  0  0
 13 14  1  0  0  0
 13 15  2  0  0  0
 14 39  1  0  0  0
 16 17  3  0  0  0
 18 23  1  0  0  0
 18 40  1  0  0  0
 18 41  1  0  0  0
 19 20  1  0  0  0
 19 21  1  0  0  0
 19 22  1  0  0  0
 23 24  1  0  0  0
 23 25  2  0  0  0
 23 26  2  0  0  0
 24 42  1  0  0  0
 24 43  1  0  0  0
 24 44  1  0  0  0
M  END
> <chembl_id>
CHEMBL250121

> <chembl_pref_name>
None

> <i_m_ct_stereo_status>
1

> <s_m_source_file>
sdf/inactives_sanitized.sdf

> <i_m_source_file_index>
407

> <i_lp_mmshare_version>
49012

> <i_f3d_flags>
0

> <s_epik_input>
W0NIMl0xW0NIMl1DMShDI04pW05IXUMoPU8pW0NASF0oW0NIMl1TKD1PKSg9TylbQ0gzXSlbTkhdW0NASF0oQyhGKShGKUYpYyhbY0hdMilbY0hdW2NIXVtjSF1jMkY=

> <s_epik_cmdline>
J2VwaWtfcHl0aG9uJywgJy1waHQnLCAnMC41JywgJy1waCcsICc3LjUnLCAnLW50JywgJy1tYScsICcyMDAnLCAnLWltYWUnLCAnPGluZmlsZS5tYWU+JywgJy1vbWFlJywgJzxvdXRmaWxlLm1hZT4n

> <r_lp_tautomer_probability>
1

> <r_epik_Ionization_Penalty>
  0.0002

> <r_epik_Ionization_Penalty_Charging>
  0.0000

> <r_epik_Ionization_Penalty_Neutral>
  0.0002

> <r_epik_State_Penalty>
 -0.0000

> <r_epik_Charging_Adjusted_Penalty>
0

> <i_epik_Tot_Q>
0

> <i_epik_Tot_abs_Q>
0

> <s_lp_Force_Field>
OPLS3e

> <r_lp_Energy>
18.470573

> <b_lp_Chiralities_Consistent>
1

> <s_lp_Variant>
sdf/inactives_sanitized.sdf:407-1

$$$$
sdf/inactives_sanitized.sdf:408
                    3D
 Schrodinger Suite 2020-1.
 64 67  0  0  1  0            999 V2000
   -1.6736    2.5275    3.0275 C   0  0  0  0  0  0
   -1.9758    1.6678    1.8183 C   0  0  0  0  0  0
   -1.8507    3.1758    1.6812 C   0  0  0  0  0  0
   -4.2035   -2.0761   -0.3931 C   0  0  0  0  0  0
   -4.7504   -1.2500   -1.3722 C   0  0  0  0  0  0
   -3.9425   -0.6945   -2.3614 C   0  0  0  0  0  0
   -2.5778   -0.9687   -2.3725 C   0  0  0  0  0  0
   -2.0173   -1.7916   -1.3874 C   0  0  0  0  0  0
   -2.8379   -2.3457   -0.4004 C   0  0  0  0  0  0
   -0.5222   -2.1290   -1.3964 C   0  0  2  0  0  0
    0.3340   -0.9460   -1.5528 N   0  0  1  0  0  0
    0.6402   -0.1681   -0.3241 C   0  0  2  0  0  0
   -0.5329    0.7845    0.0080 C   0  0  0  0  0  0
   -0.9040    0.8256    1.2985 N   0  0  0  0  0  0
   -1.0520    1.4699   -0.8754 O   0  0  0  0  0  0
   -3.3288    1.1015    1.6857 C   0  0  0  0  0  0
   -4.3925    0.6582    1.5847 N   0  0  0  0  0  0
    1.9602    0.6100   -0.5333 C   0  0  0  0  0  0
   -0.1633   -3.1830   -2.4744 C   0  0  0  0  0  0
    1.1269   -3.5189   -2.4143 F   0  0  0  0  0  0
   -0.8617   -4.3054   -2.2970 F   0  0  0  0  0  0
   -0.4052   -2.7535   -3.7144 F   0  0  0  0  0  0
    2.7468    1.3449    1.0307 S   0  0  0  0  0  0
    2.9730   -0.1247    2.2229 C   0  0  0  0  0  0
    4.0872    1.8012    0.6492 O   0  0  0  0  0  0
    1.8036    2.3083    1.6084 O   0  0  0  0  0  0
    1.9178   -0.2201    3.3315 C   0  0  0  0  0  0
    1.0517   -1.3291    3.5046 C   0  0  0  0  0  0
    0.0705   -1.2544    4.5066 C   0  0  0  0  0  0
   -0.0258   -0.1540    5.3532 C   0  0  0  0  0  0
    0.8692    0.8995    5.2194 C   0  0  0  0  0  0
    1.8330    0.8626    4.2171 C   0  0  0  0  0  0
   -6.0766   -0.9865   -1.3630 F   0  0  0  0  0  0
    1.1393   -2.5957    2.7144 C   0  0  0  0  0  0
   -0.0207   -3.1816    2.1892 C   0  0  0  0  0  0
    0.0425   -4.3823    1.4865 C   0  0  0  0  0  0
    1.2714   -5.0078    1.3008 C   0  0  0  0  0  0
    2.4327   -4.4512    1.8281 C   0  0  0  0  0  0
    2.3628   -3.2570    2.5403 C   0  0  0  0  0  0
   -2.4489    2.6633    3.7819 H   0  0  0  0  0  0
   -0.6722    2.5130    3.4571 H   0  0  0  0  0  0
   -0.9721    3.5958    1.1898 H   0  0  0  0  0  0
   -2.7502    3.7642    1.4986 H   0  0  0  0  0  0
   -4.8358   -2.5036    0.3708 H   0  0  0  0  0  0
   -4.3730   -0.0559   -3.1185 H   0  0  0  0  0  0
   -1.9567   -0.5382   -3.1444 H   0  0  0  0  0  0
   -2.4238   -2.9908    0.3597 H   0  0  0  0  0  0
   -0.2696   -2.5765   -0.4378 H   0  0  0  0  0  0
    1.1806   -1.2228   -2.0300 H   0  0  0  0  0  0
    0.8099   -0.8443    0.5138 H   0  0  0  0  0  0
   -0.4665    0.1945    1.9542 H   0  0  0  0  0  0
    2.7136   -0.0173   -1.0113 H   0  0  0  0  0  0
    1.8079    1.4546   -1.2077 H   0  0  0  0  0  0
    3.0407   -1.0043    1.5903 H   0  0  0  0  0  0
    3.9501   -0.0000    2.6902 H   0  0  0  0  0  0
   -0.6134   -2.0768    4.6600 H   0  0  0  0  0  0
   -0.7816   -0.1282    6.1243 H   0  0  0  0  0  0
    0.8093    1.7498    5.8828 H   0  0  0  0  0  0
    2.5089    1.6997    4.1166 H   0  0  0  0  0  0
   -0.9802   -2.7020    2.3199 H   0  0  0  0  0  0
   -0.8565   -4.8224    1.0806 H   0  0  0  0  0  0
    1.3230   -5.9360    0.7508 H   0  0  0  0  0  0
    3.3823   -4.9480    1.6937 H   0  0  0  0  0  0
    3.2682   -2.8509    2.9676 H   0  0  0  0  0  0
  1  2  1  0  0  0
  1  3  1  0  0  0
  1 40  1  0  0  0
  1 41  1  0  0  0
  2 14  1  0  0  0
  2 16  1  0  0  0
  2  3  1  0  0  0
  3 42  1  0  0  0
  3 43  1  0  0  0
  4  5  2  0  0  0
  4  9  1  0  0  0
  4 44  1  0  0  0
  5  6  1  0  0  0
  5 33  1  0  0  0
  6  7  2  0  0  0
  6 45  1  0  0  0
  7  8  1  0  0  0
  7 46  1  0  0  0
  8  9  2  0  0  0
  8 10  1  0  0  0
  9 47  1  0  0  0
 10 19  1  0  0  0
 10 11  1  0  0  0
 10 48  1  0  0  0
 11 12  1  0  0  0
 11 49  1  0  0  0
 12 13  1  0  0  0
 12 18  1  0  0  0
 12 50  1  0  0  0
 13 14  1  0  0  0
 13 15  2  0  0  0
 14 51  1  0  0  0
 16 17  3  0  0  0
 18 23  1  0  0  0
 18 52  1  0  0  0
 18 53  1  0  0  0
 19 20  1  0  0  0
 19 21  1  0  0  0
 19 22  1  0  0  0
 23 24  1  0  0  0
 23 25  2  0  0  0
 23 26  2  0  0  0
 24 27  1  0  0  0
 24 54  1  0  0  0
 24 55  1  0  0  0
 27 28  1  0  0  0
 27 32  2  0  0  0
 28 29  2  0  0  0
 28 34  1  0  0  0
 29 30  1  0  0  0
 29 56  1  0  0  0
 30 31  2  0  0  0
 30 57  1  0  0  0
 31 32  1  0  0  0
 31 58  1  0  0  0
 32 59  1  0  0  0
 34 35  2  0  0  0
 34 39  1  0  0  0
 35 36  1  0  0  0
 35 60  1  0  0  0
 36 37  2  0  0  0
 36 61  1  0  0  0
 37 38  1  0  0  0
 37 62  1  0  0  0
 38 39  2  0  0  0
 38 63  1  0  0  0
 39 64  1  0  0  0
M  END
> <chembl_id>
CHEMBL251101

> <chembl_pref_name>
None

> <i_m_ct_stereo_status>
1

> <s_m_source_file>
sdf/inactives_sanitized.sdf

> <i_m_source_file_index>
408

> <i_lp_mmshare_version>
49012

> <i_f3d_flags>
0

> <s_epik_input>
RmMxW2NIXVtjSF1jKFtjSF1bY0hdMSlbQ0BASF0oQyhGKShGKUYpW05IXVtDQEhdKEMoPU8pW05IXUMyKEMjTilbQ0gyXVtDSDJdMilbQ0gyXVMoPU8pKD1PKVtDSDJdYzNjKFtjSF1bY0hdW2NIXVtjSF0zKS1jNFtjSF1bY0hdW2NIXVtjSF1bY0hdNA==

> <s_epik_cmdline>
J2VwaWtfcHl0aG9uJywgJy1waHQnLCAnMC41JywgJy1waCcsICc3LjUnLCAnLW50JywgJy1tYScsICcyMDAnLCAnLWltYWUnLCAnPGluZmlsZS5tYWU+JywgJy1vbWFlJywgJzxvdXRmaWxlLm1hZT4n

> <r_lp_tautomer_probability>
1

> <r_epik_Ionization_Penalty>
  0.0002

> <r_epik_Ionization_Penalty_Charging>
  0.0000

> <r_epik_Ionization_Penalty_Neutral>
  0.0002

> <r_epik_State_Penalty>
 -0.0000

> <r_epik_Charging_Adjusted_Penalty>
0

> <i_epik_Tot_Q>
0

> <i_epik_Tot_abs_Q>
0

> <s_lp_Force_Field>
OPLS3e

> <r_lp_Energy>
46.547224

> <b_lp_Chiralities_Consistent>
1

> <s_lp_Variant>
sdf/inactives_sanitized.sdf:408-1

$$$$
sdf/inactives_sanitized.sdf:409
                    3D
 Schrodinger Suite 2020-1.
 24 24  0  0  1  0            999 V2000
   -3.0923    1.7132    0.0659 C   0  0  0  0  0  0
   -2.2014    0.6885    0.0730 C   0  0  0  0  0  0
   -2.6717   -0.7779   -0.0228 C   0  0  0  0  0  0
   -4.1642   -0.9281    0.3406 C   0  0  0  0  0  0
   -5.0248    0.1193   -0.3820 C   0  0  0  0  0  0
   -4.6073    1.5617   -0.0266 C   0  0  0  0  0  0
   -0.7680    0.9685    0.1484 C   0  0  0  0  0  0
   -0.3177    2.0984    0.3550 O   0  0  0  0  0  0
    0.0493   -0.0831   -0.0549 N   0  0  0  0  0  0
    1.5081   -0.0304   -0.0025 C   0  0  0  0  0  0
    2.0231    0.2577    1.3478 C   0  0  0  0  0  0
    2.4280    0.4834    2.4079 N   0  0  0  0  0  0
   -2.7254    2.7285    0.1354 H   0  0  0  0  0  0
   -2.5152   -1.1365   -1.0416 H   0  0  0  0  0  0
   -2.0858   -1.4403    0.6168 H   0  0  0  0  0  0
   -4.5076   -1.9326    0.0897 H   0  0  0  0  0  0
   -4.2929   -0.8225    1.4191 H   0  0  0  0  0  0
   -6.0790   -0.0300   -0.1454 H   0  0  0  0  0  0
   -4.9336   -0.0285   -1.4594 H   0  0  0  0  0  0
   -5.0193    2.2567   -0.7590 H   0  0  0  0  0  0
   -5.0416    1.8499    0.9313 H   0  0  0  0  0  0
   -0.3627   -0.9930   -0.2001 H   0  0  0  0  0  0
    1.9084   -0.9942   -0.3170 H   0  0  0  0  0  0
    1.8943    0.7189   -0.6952 H   0  0  0  0  0  0
  1  2  2  0  0  0
  1  6  1  0  0  0
  1 13  1  0  0  0
  2  7  1  0  0  0
  2  3  1  0  0  0
  3  4  1  0  0  0
  3 14  1  0  0  0
  3 15  1  0  0  0
  4  5  1  0  0  0
  4 16  1  0  0  0
  4 17  1  0  0  0
  5  6  1  0  0  0
  5 18  1  0  0  0
  5 19  1  0  0  0
  6 20  1  0  0  0
  6 21  1  0  0  0
  7  8  2  0  0  0
  7  9  1  0  0  0
  9 10  1  0  0  0
  9 22  1  0  0  0
 10 11  1  0  0  0
 10 23  1  0  0  0
 10 24  1  0  0  0
 11 12  3  0  0  0
M  END
> <chembl_id>
CHEMBL201917

> <chembl_pref_name>
None

> <s_m_source_file>
sdf/inactives_sanitized.sdf

> <i_m_source_file_index>
409

> <i_lp_mmshare_version>
49012

> <i_m_ct_stereo_status>
1

> <i_f3d_flags>
0

> <s_epik_input>
W0NIMl0xW0NIMl1bQ0gyXVtDSDJdW0NIXT1DMUMoPU8pW05IXVtDSDJdQyNO

> <s_epik_cmdline>
J2VwaWtfcHl0aG9uJywgJy1waHQnLCAnMC41JywgJy1waCcsICc3LjUnLCAnLW50JywgJy1tYScsICcyMDAnLCAnLWltYWUnLCAnPGluZmlsZS5tYWU+JywgJy1vbWFlJywgJzxvdXRmaWxlLm1hZT4n

> <r_lp_tautomer_probability>
1

> <r_epik_Ionization_Penalty>
  0.0000

> <r_epik_Ionization_Penalty_Charging>
  0.0000

> <r_epik_Ionization_Penalty_Neutral>
  0.0000

> <r_epik_State_Penalty>
 -0.0000

> <r_epik_Charging_Adjusted_Penalty>
0

> <i_epik_Tot_Q>
0

> <i_epik_Tot_abs_Q>
0

> <s_lp_Force_Field>
OPLS3e

> <r_lp_Energy>
10.37157

> <b_lp_Chiralities_Consistent>
1

> <s_lp_Variant>
sdf/inactives_sanitized.sdf:409-1

$$$$
sdf/inactives_sanitized.sdf:410
                    3D
 Schrodinger Suite 2020-1.
 53 53  0  0  1  0            999 V2000
   -2.3298    3.7771   -1.1887 C   0  0  0  0  0  0
   -1.5471    2.8707   -0.3883 O   0  0  0  0  0  0
   -3.6886    3.1506   -1.5888 C   0  0  0  0  0  0
   -1.5451    4.2443   -2.4402 C   0  0  0  0  0  0
   -2.5798    4.9863   -0.2642 C   0  0  0  0  0  0
   -1.0813    1.6602   -0.7982 C   0  0  0  0  0  0
   -0.3322    1.1015    0.2276 N   0  0  0  0  0  0
   -1.2880    1.1539   -1.9025 O   0  0  0  0  0  0
    0.3539   -0.1984    0.1230 C   0  0  2  0  0  0
    0.3253   -0.9127    1.4844 C   0  0  0  0  0  0
   -0.1541   -0.4375    2.5634 N   0  0  0  0  0  0
    1.8210   -0.0717   -0.3712 C   0  0  0  0  0  0
    1.9877    0.5145   -1.7905 C   0  0  0  0  0  0
    3.4475    0.5936   -2.2793 C   0  0  0  0  0  0
    4.1196   -0.7703   -2.5007 C   0  0  0  0  0  0
   -0.0052   -1.3807    3.6049 O   0  0  0  0  0  0
    0.0070   -0.8238    4.8636 C   0  0  0  0  0  0
   -0.0749    0.3888    5.0967 O   0  0  0  0  0  0
    0.1499   -1.8110    5.8566 N   0  0  0  0  0  0
   -1.4093   -3.4644    7.4155 O   0  0  0  0  0  0
   -1.2144   -3.7817    6.0368 C   0  0  0  0  0  0
    0.1552   -3.2544    5.5554 C   0  0  0  0  0  0
   -0.0299   -1.4419    7.2688 C   0  0  0  0  0  0
   -1.3833   -2.0623    7.6896 C   0  0  0  0  0  0
   -4.3339    3.8814   -2.0776 H   0  0  0  0  0  0
   -4.2230    2.7742   -0.7155 H   0  0  0  0  0  0
   -3.5718    2.3151   -2.2789 H   0  0  0  0  0  0
   -1.3821    3.4347   -3.1514 H   0  0  0  0  0  0
   -0.5638    4.6351   -2.1682 H   0  0  0  0  0  0
   -2.0769    5.0350   -2.9708 H   0  0  0  0  0  0
   -3.1704    5.7574   -0.7607 H   0  0  0  0  0  0
   -1.6433    5.4461    0.0552 H   0  0  0  0  0  0
   -3.1165    4.6939    0.6396 H   0  0  0  0  0  0
   -0.2390    1.6196    1.0893 H   0  0  0  0  0  0
   -0.1891   -0.8334   -0.5807 H   0  0  0  0  0  0
    0.7651   -1.9067    1.4259 H   0  0  0  0  0  0
    2.2850   -1.0592   -0.3522 H   0  0  0  0  0  0
    2.3947    0.5367    0.3311 H   0  0  0  0  0  0
    1.3973   -0.0670   -2.5002 H   0  0  0  0  0  0
    1.5761    1.5236   -1.8138 H   0  0  0  0  0  0
    3.4701    1.1461   -3.2195 H   0  0  0  0  0  0
    4.0396    1.1809   -1.5761 H   0  0  0  0  0  0
    5.1169   -0.6448   -2.9235 H   0  0  0  0  0  0
    3.5441   -1.3878   -3.1912 H   0  0  0  0  0  0
    4.2312   -1.3222   -1.5677 H   0  0  0  0  0  0
   -1.2644   -4.8624    5.9043 H   0  0  0  0  0  0
   -2.0256   -3.3674    5.4345 H   0  0  0  0  0  0
    0.9227   -3.6706    6.2094 H   0  0  0  0  0  0
    0.4195   -3.5319    4.5348 H   0  0  0  0  0  0
    0.7765   -1.9484    7.8003 H   0  0  0  0  0  0
    0.0442   -0.3722    7.4693 H   0  0  0  0  0  0
   -2.2130   -1.5668    7.1808 H   0  0  0  0  0  0
   -1.5472   -1.9041    8.7556 H   0  0  0  0  0  0
  1  2  1  0  0  0
  1  4  1  0  0  0
  1  5  1  0  0  0
  1  3  1  0  0  0
  2  6  1  0  0  0
  3 25  1  0  0  0
  3 26  1  0  0  0
  3 27  1  0  0  0
  4 28  1  0  0  0
  4 29  1  0  0  0
  4 30  1  0  0  0
  5 31  1  0  0  0
  5 32  1  0  0  0
  5 33  1  0  0  0
  6  7  1  0  0  0
  6  8  2  0  0  0
  7  9  1  0  0  0
  7 34  1  0  0  0
  9 10  1  0  0  0
  9 12  1  0  0  0
  9 35  1  0  0  0
 10 11  2  0  0  0
 10 36  1  0  0  0
 11 16  1  0  0  0
 12 13  1  0  0  0
 12 37  1  0  0  0
 12 38  1  0  0  0
 13 14  1  0  0  0
 13 39  1  0  0  0
 13 40  1  0  0  0
 14 15  1  0  0  0
 14 41  1  0  0  0
 14 42  1  0  0  0
 15 43  1  0  0  0
 15 44  1  0  0  0
 15 45  1  0  0  0
 16 17  1  0  0  0
 17 18  2  0  0  0
 17 19  1  0  0  0
 19 22  1  0  0  0
 19 23  1  0  0  0
 20 24  1  0  0  0
 20 21  1  0  0  0
 21 22  1  0  0  0
 21 46  1  0  0  0
 21 47  1  0  0  0
 22 48  1  0  0  0
 22 49  1  0  0  0
 23 24  1  0  0  0
 23 50  1  0  0  0
 23 51  1  0  0  0
 24 52  1  0  0  0
 24 53  1  0  0  0
M  END
> <chembl_id>
CHEMBL204537

> <chembl_pref_name>
None

> <i_m_ct_stereo_status>
1

> <s_m_source_file>
sdf/inactives_sanitized.sdf

> <i_m_source_file_index>
410

> <i_lp_mmshare_version>
49012

> <i_f3d_flags>
0

> <s_epik_input>
W0NIM11DKFtDSDNdKShbQ0gzXSlPQyg9TylbTkhdW0NAQEhdKFtDSDJdW0NIMl1bQ0gyXVtDSDNdKS9bQ0hdPU4vT0MoPU8pTjFbQ0gyXVtDSDJdT1tDSDJdW0NIMl0x

> <s_epik_cmdline>
J2VwaWtfcHl0aG9uJywgJy1waHQnLCAnMC41JywgJy1waCcsICc3LjUnLCAnLW50JywgJy1tYScsICcyMDAnLCAnLWltYWUnLCAnPGluZmlsZS5tYWU+JywgJy1vbWFlJywgJzxvdXRmaWxlLm1hZT4n

> <r_lp_tautomer_probability>
1

> <r_epik_Ionization_Penalty>
  0.0000

> <r_epik_Ionization_Penalty_Charging>
  0.0000

> <r_epik_Ionization_Penalty_Neutral>
  0.0000

> <r_epik_State_Penalty>
 -0.0000

> <r_epik_Charging_Adjusted_Penalty>
0

> <i_epik_Tot_Q>
0

> <i_epik_Tot_abs_Q>
0

> <s_epik_Chemistry_Notes>
This compound has an ester and may undergo hydrolysis at high or low pH. This compound has an imine and may undergo hydrolysis.

> <s_lp_Force_Field>
OPLS3e

> <r_lp_Energy>
13.715739

> <b_lp_Chiralities_Consistent>
1

> <s_lp_Variant>
sdf/inactives_sanitized.sdf:410-1

$$$$
sdf/inactives_sanitized.sdf:411
                    3D
 Schrodinger Suite 2020-1.
 40 41  0  0  1  0            999 V2000
   -2.8797    0.3862    1.1488 C   0  0  0  0  0  0
   -4.2741    0.3359    1.1308 C   0  0  0  0  0  0
   -4.9304   -0.8785    1.3325 C   0  0  0  0  0  0
   -4.1920   -2.0404    1.5545 C   0  0  0  0  0  0
   -2.7979   -1.9903    1.5696 C   0  0  0  0  0  0
   -2.1301   -0.7785    1.3576 C   0  0  0  0  0  0
   -0.6012   -0.7370    1.3658 C   0  0  0  0  0  0
    0.0160   -0.0421    0.1195 C   0  0  2  0  0  0
   -0.3995   -0.6877   -1.1313 N   0  0  0  0  0  0
    1.5548   -0.0470    0.2092 C   0  0  0  0  0  0
    2.1785   -1.0954    0.0320 O   0  0  0  0  0  0
    2.1377    1.1216    0.5249 N   0  0  0  0  0  0
    3.5732    1.2895    0.7289 C   0  0  0  0  0  0
    4.0717    0.5678    1.9132 C   0  0  0  0  0  0
    4.4630    0.0015    2.8433 N   0  0  0  0  0  0
   -1.2226   -0.1647   -2.0604 C   0  0  0  0  0  0
   -1.7406    0.9492   -1.9534 O   0  0  0  0  0  0
   -1.5211   -1.0433   -3.2546 C   0  0  0  0  0  0
   -5.1854    1.7756    0.8573 Cl  0  0  0  0  0  0
   -2.7006   -0.8413   -3.9857 C   0  0  0  0  0  0
   -2.9938   -1.6391   -5.0885 C   0  0  0  0  0  0
   -2.1067   -2.6409   -5.4716 C   0  0  0  0  0  0
   -0.9282   -2.8516   -4.7614 C   0  0  0  0  0  0
   -0.6349   -2.0563   -3.6568 C   0  0  0  0  0  0
   -2.3845    1.3335    0.9945 H   0  0  0  0  0  0
   -6.0097   -0.9219    1.3187 H   0  0  0  0  0  0
   -4.7001   -2.9803    1.7128 H   0  0  0  0  0  0
   -2.2397   -2.8995    1.7394 H   0  0  0  0  0  0
   -0.2859   -0.2375    2.2839 H   0  0  0  0  0  0
   -0.2199   -1.7583    1.4360 H   0  0  0  0  0  0
   -0.3124    0.9993    0.1225 H   0  0  0  0  0  0
   -0.0123   -1.6066   -1.2893 H   0  0  0  0  0  0
    1.5562    1.9291    0.6966 H   0  0  0  0  0  0
    4.1319    0.9580   -0.1479 H   0  0  0  0  0  0
    3.7901    2.3490    0.8649 H   0  0  0  0  0  0
   -3.4026   -0.0692   -3.7031 H   0  0  0  0  0  0
   -3.9064   -1.4806   -5.6441 H   0  0  0  0  0  0
   -2.3338   -3.2588   -6.3280 H   0  0  0  0  0  0
   -0.2429   -3.6287   -5.0671 H   0  0  0  0  0  0
    0.2891   -2.2353   -3.1256 H   0  0  0  0  0  0
  1  6  2  0  0  0
  1  2  1  0  0  0
  1 25  1  0  0  0
  2 19  1  0  0  0
  2  3  2  0  0  0
  3  4  1  0  0  0
  3 26  1  0  0  0
  4  5  2  0  0  0
  4 27  1  0  0  0
  5  6  1  0  0  0
  5 28  1  0  0  0
  6  7  1  0  0  0
  7  8  1  0  0  0
  7 29  1  0  0  0
  7 30  1  0  0  0
  8  9  1  0  0  0
  8 10  1  0  0  0
  8 31  1  0  0  0
  9 16  1  0  0  0
  9 32  1  0  0  0
 10 12  1  0  0  0
 10 11  2  0  0  0
 12 13  1  0  0  0
 12 33  1  0  0  0
 13 14  1  0  0  0
 13 34  1  0  0  0
 13 35  1  0  0  0
 14 15  3  0  0  0
 16 17  2  0  0  0
 16 18  1  0  0  0
 18 20  2  0  0  0
 18 24  1  0  0  0
 20 21  1  0  0  0
 20 36  1  0  0  0
 21 22  2  0  0  0
 21 37  1  0  0  0
 22 23  1  0  0  0
 22 38  1  0  0  0
 23 24  2  0  0  0
 23 39  1  0  0  0
 24 40  1  0  0  0
M  END
> <chembl_id>
CHEMBL550246

> <chembl_pref_name>
None

> <i_m_ct_stereo_status>
1

> <s_m_source_file>
sdf/inactives_sanitized.sdf

> <i_m_source_file_index>
411

> <i_lp_mmshare_version>
49012

> <i_f3d_flags>
0

> <s_epik_input>
W2NIXTFbY0hdW2NIXWMoW2NIXWMxQ2wpW0NIMl1bQ0BASF0oQyg9TylbTkhdW0NIMl1DI04pW05IXUMoPU8pYzJbY0hdW2NIXVtjSF1bY0hdW2NIXTI=

> <s_epik_cmdline>
J2VwaWtfcHl0aG9uJywgJy1waHQnLCAnMC41JywgJy1waCcsICc3LjUnLCAnLW50JywgJy1tYScsICcyMDAnLCAnLWltYWUnLCAnPGluZmlsZS5tYWU+JywgJy1vbWFlJywgJzxvdXRmaWxlLm1hZT4n

> <r_lp_tautomer_probability>
1

> <r_epik_Ionization_Penalty>
  0.0000

> <r_epik_Ionization_Penalty_Charging>
  0.0000

> <r_epik_Ionization_Penalty_Neutral>
  0.0000

> <r_epik_State_Penalty>
 -0.0000

> <r_epik_Charging_Adjusted_Penalty>
0

> <i_epik_Tot_Q>
0

> <i_epik_Tot_abs_Q>
0

> <s_lp_Force_Field>
OPLS3e

> <r_lp_Energy>
22.628489

> <b_lp_Chiralities_Consistent>
1

> <s_lp_Variant>
sdf/inactives_sanitized.sdf:411-1

$$$$
sdf/inactives_sanitized.sdf:412
                    3D
 Schrodinger Suite 2020-1.
 50 52  0  0  1  0            999 V2000
   -2.7562   -2.0627    1.9260 C   0  0  0  0  0  0
   -4.1388   -2.2488    1.9735 C   0  0  0  0  0  0
   -4.9952   -1.1978    1.6461 C   0  0  0  0  0  0
   -4.4693    0.0388    1.2750 C   0  0  0  0  0  0
   -3.0877    0.2249    1.2281 C   0  0  0  0  0  0
   -2.2184   -0.8274    1.5457 C   0  0  0  0  0  0
   -0.6993   -0.6431    1.5023 C   0  0  0  0  0  0
   -0.1809    0.0780    0.2267 C   0  0  2  0  0  0
   -0.6474   -0.5675   -1.0066 N   0  0  0  0  0  0
    1.3598    0.1863    0.2276 C   0  0  0  0  0  0
    2.0442   -0.8365    0.2845 O   0  0  0  0  0  0
    1.8739    1.4260    0.1713 N   0  0  0  0  0  0
    3.2998    1.7091    0.0497 C   0  0  0  0  0  0
    3.8589    1.2597   -1.2382 C   0  0  0  0  0  0
    4.2966    0.9072   -2.2497 N   0  0  0  0  0  0
   -0.6058   -0.0302   -2.2416 C   0  0  0  0  0  0
   -0.1885    1.1065   -2.4727 O   0  0  0  0  0  0
   -1.1166   -0.9175   -3.3550 C   0  0  0  0  0  0
   -4.7884   -3.7788    2.4379 Cl  0  0  0  0  0  0
   -2.2018   -2.5154   -5.3684 C   0  0  0  0  0  0
   -2.8656   -2.3928   -4.1573 C   0  0  0  0  0  0
   -2.3219   -1.6048   -3.1549 C   0  0  0  0  0  0
   -0.9878   -1.8646   -5.6035 C   0  0  0  0  0  0
   -0.4299   -1.0381   -4.5920 C   0  0  0  0  0  0
    0.8775   -0.2688   -4.8771 C   0  0  0  0  0  0
    1.6863   -0.8149   -6.0643 C   0  0  0  0  0  0
    0.7737   -1.0450   -7.2700 C   0  0  0  0  0  0
   -0.2705   -2.1172   -6.9325 C   0  0  0  0  0  0
   -2.1021   -2.8835    2.1830 H   0  0  0  0  0  0
   -6.0658   -1.3375    1.6820 H   0  0  0  0  0  0
   -5.1322    0.8544    1.0264 H   0  0  0  0  0  0
   -2.7024    1.1931    0.9461 H   0  0  0  0  0  0
   -0.3964   -0.1033    2.4011 H   0  0  0  0  0  0
   -0.2301   -1.6276    1.5659 H   0  0  0  0  0  0
   -0.5907    1.0902    0.2258 H   0  0  0  0  0  0
   -1.0014   -1.5066   -0.8980 H   0  0  0  0  0  0
    1.2461    2.2138    0.0998 H   0  0  0  0  0  0
    3.8610    1.2474    0.8637 H   0  0  0  0  0  0
    3.4540    2.7854    0.1253 H   0  0  0  0  0  0
   -2.6288   -3.1472   -6.1337 H   0  0  0  0  0  0
   -3.7994   -2.9107   -3.9949 H   0  0  0  0  0  0
   -2.8635   -1.5165   -2.2231 H   0  0  0  0  0  0
    0.6172    0.7702   -5.0846 H   0  0  0  0  0  0
    1.5244   -0.2564   -3.9988 H   0  0  0  0  0  0
    2.4831   -0.1161   -6.3220 H   0  0  0  0  0  0
    2.1772   -1.7487   -5.7849 H   0  0  0  0  0  0
    0.2806   -0.1126   -7.5505 H   0  0  0  0  0  0
    1.3609   -1.3562   -8.1349 H   0  0  0  0  0  0
   -0.9905   -2.1994   -7.7482 H   0  0  0  0  0  0
    0.2277   -3.0857   -6.8676 H   0  0  0  0  0  0
  1  6  2  0  0  0
  1  2  1  0  0  0
  1 29  1  0  0  0
  2 19  1  0  0  0
  2  3  2  0  0  0
  3  4  1  0  0  0
  3 30  1  0  0  0
  4  5  2  0  0  0
  4 31  1  0  0  0
  5  6  1  0  0  0
  5 32  1  0  0  0
  6  7  1  0  0  0
  7  8  1  0  0  0
  7 33  1  0  0  0
  7 34  1  0  0  0
  8  9  1  0  0  0
  8 10  1  0  0  0
  8 35  1  0  0  0
  9 16  1  0  0  0
  9 36  1  0  0  0
 10 11  2  0  0  0
 10 12  1  0  0  0
 12 13  1  0  0  0
 12 37  1  0  0  0
 13 14  1  0  0  0
 13 38  1  0  0  0
 13 39  1  0  0  0
 14 15  3  0  0  0
 16 17  2  0  0  0
 16 18  1  0  0  0
 18 24  2  0  0  0
 18 22  1  0  0  0
 20 23  2  0  0  0
 20 21  1  0  0  0
 20 40  1  0  0  0
 21 22  2  0  0  0
 21 41  1  0  0  0
 22 42  1  0  0  0
 23 24  1  0  0  0
 23 28  1  0  0  0
 24 25  1  0  0  0
 25 26  1  0  0  0
 25 43  1  0  0  0
 25 44  1  0  0  0
 26 27  1  0  0  0
 26 45  1  0  0  0
 26 46  1  0  0  0
 27 28  1  0  0  0
 27 47  1  0  0  0
 27 48  1  0  0  0
 28 49  1  0  0  0
 28 50  1  0  0  0
M  END
> <chembl_id>
CHEMBL556217

> <chembl_pref_name>
None

> <i_m_ct_stereo_status>
1

> <s_m_source_file>
sdf/inactives_sanitized.sdf

> <i_m_source_file_index>
412

> <i_lp_mmshare_version>
49012

> <i_f3d_flags>
0

> <s_epik_input>
W2NIXTFbY0hdW2NIXWMoW2NIXWMxQ2wpW0NIMl1bQ0BASF0oQyg9TylbTkhdW0NIMl1DI04pW05IXUMoPU8pYyhbY0hdW2NIXVtjSF0yKWMoYzIzKVtDSDJdW0NIMl1bQ0gyXVtDSDJdMw==

> <s_epik_cmdline>
J2VwaWtfcHl0aG9uJywgJy1waHQnLCAnMC41JywgJy1waCcsICc3LjUnLCAnLW50JywgJy1tYScsICcyMDAnLCAnLWltYWUnLCAnPGluZmlsZS5tYWU+JywgJy1vbWFlJywgJzxvdXRmaWxlLm1hZT4n

> <r_lp_tautomer_probability>
1

> <r_epik_Ionization_Penalty>
  0.0000

> <r_epik_Ionization_Penalty_Charging>
  0.0000

> <r_epik_Ionization_Penalty_Neutral>
  0.0000

> <r_epik_State_Penalty>
 -0.0000

> <r_epik_Charging_Adjusted_Penalty>
0

> <i_epik_Tot_Q>
0

> <i_epik_Tot_abs_Q>
0

> <s_lp_Force_Field>
OPLS3e

> <r_lp_Energy>
32.36317

> <b_lp_Chiralities_Consistent>
1

> <s_lp_Variant>
sdf/inactives_sanitized.sdf:412-1

$$$$
sdf/inactives_sanitized.sdf:413
                    3D
 Schrodinger Suite 2020-1.
 51 53  0  0  1  0            999 V2000
    2.4245    1.3796   -4.0738 C   0  0  0  0  0  0
    3.2004    0.5692   -3.0502 C   0  0  0  0  0  0
    3.4479    2.0555   -3.1998 C   0  0  0  0  0  0
    0.6515    3.5586    0.3889 C   0  0  0  0  0  0
    0.5113    3.9515   -0.9401 C   0  0  0  0  0  0
   -0.1367    3.1292   -1.8587 C   0  0  0  0  0  0
   -0.6449    1.9007   -1.4459 C   0  0  0  0  0  0
   -0.5061    1.4954   -0.1128 C   0  0  0  0  0  0
    0.1397    2.3322    0.8027 C   0  0  0  0  0  0
   -1.0369    0.1366    0.3613 C   0  0  2  0  0  0
   -0.5376   -0.9867   -0.4406 N   0  0  1  0  0  0
    0.9324   -1.1757   -0.4728 C   0  0  2  0  0  0
    1.4891   -0.7612   -1.8528 C   0  0  0  0  0  0
    2.5104    0.1126   -1.8487 N   0  0  0  0  0  0
    0.9954   -1.2287   -2.8804 O   0  0  0  0  0  0
    4.2073   -0.3699   -3.5747 C   0  0  0  0  0  0
    4.9980   -1.1077   -3.9858 N   0  0  0  0  0  0
    1.3798   -2.5989   -0.0705 C   0  0  0  0  0  0
   -2.5828    0.0915    0.4550 C   0  0  0  0  0  0
   -3.0047   -1.0674    0.9646 F   0  0  0  0  0  0
   -3.0427    1.0562    1.2529 F   0  0  0  0  0  0
   -3.1724    0.2408   -0.7326 F   0  0  0  0  0  0
    1.4741   -2.8614    1.8036 S   0  0  0  0  0  0
    2.6850   -1.6515    2.3341 C   0  0  0  0  0  0
    0.1844   -2.4901    2.3973 O   0  0  0  0  0  0
    2.0479   -4.1875    2.0578 O   0  0  0  0  0  0
    4.0492   -1.9335    2.2162 C   0  0  0  0  0  0
    4.9949   -0.9795    2.5939 C   0  0  0  0  0  0
    4.5810    0.2595    3.0843 C   0  0  0  0  0  0
    3.2199    0.5440    3.2024 C   0  0  0  0  0  0
    2.2729   -0.4122    2.8352 C   0  0  0  0  0  0
    2.6524    2.2406    3.8513 Br  0  0  0  0  0  0
    2.6499    1.2451   -5.1321 H   0  0  0  0  0  0
    1.3686    1.5867   -3.8983 H   0  0  0  0  0  0
    3.0964    2.7335   -2.4210 H   0  0  0  0  0  0
    4.3820    2.3898   -3.6521 H   0  0  0  0  0  0
    1.1549    4.2019    1.0956 H   0  0  0  0  0  0
    0.9085    4.9030   -1.2616 H   0  0  0  0  0  0
   -0.2402    3.4403   -2.8878 H   0  0  0  0  0  0
   -1.1375    1.2605   -2.1634 H   0  0  0  0  0  0
    0.2533    2.0316    1.8341 H   0  0  0  0  0  0
   -0.6633   -0.0325    1.3727 H   0  0  0  0  0  0
   -1.0603   -1.8369   -0.2827 H   0  0  0  0  0  0
    1.4122   -0.5042    0.2398 H   0  0  0  0  0  0
    2.8995    0.4052   -0.9642 H   0  0  0  0  0  0
    0.6868   -3.3449   -0.4613 H   0  0  0  0  0  0
    2.3521   -2.8624   -0.4902 H   0  0  0  0  0  0
    4.3789   -2.8856    1.8261 H   0  0  0  0  0  0
    6.0486   -1.1981    2.5006 H   0  0  0  0  0  0
    5.3158    0.9981    3.3692 H   0  0  0  0  0  0
    1.2220   -0.1794    2.9244 H   0  0  0  0  0  0
  1  2  1  0  0  0
  1  3  1  0  0  0
  1 33  1  0  0  0
  1 34  1  0  0  0
  2 14  1  0  0  0
  2 16  1  0  0  0
  2  3  1  0  0  0
  3 35  1  0  0  0
  3 36  1  0  0  0
  4  9  2  0  0  0
  4  5  1  0  0  0
  4 37  1  0  0  0
  5  6  2  0  0  0
  5 38  1  0  0  0
  6  7  1  0  0  0
  6 39  1  0  0  0
  7  8  2  0  0  0
  7 40  1  0  0  0
  8  9  1  0  0  0
  8 10  1  0  0  0
  9 41  1  0  0  0
 10 11  1  0  0  0
 10 19  1  0  0  0
 10 42  1  0  0  0
 11 12  1  0  0  0
 11 43  1  0  0  0
 12 13  1  0  0  0
 12 18  1  0  0  0
 12 44  1  0  0  0
 13 14  1  0  0  0
 13 15  2  0  0  0
 14 45  1  0  0  0
 16 17  3  0  0  0
 18 23  1  0  0  0
 18 46  1  0  0  0
 18 47  1  0  0  0
 19 20  1  0  0  0
 19 21  1  0  0  0
 19 22  1  0  0  0
 23 24  1  0  0  0
 23 25  2  0  0  0
 23 26  2  0  0  0
 24 27  2  0  0  0
 24 31  1  0  0  0
 27 28  1  0  0  0
 27 48  1  0  0  0
 28 29  2  0  0  0
 28 49  1  0  0  0
 29 30  1  0  0  0
 29 50  1  0  0  0
 30 31  2  0  0  0
 30 32  1  0  0  0
 31 51  1  0  0  0
M  END
> <chembl_id>
CHEMBL251719

> <chembl_pref_name>
None

> <i_m_ct_stereo_status>
1

> <s_m_source_file>
sdf/inactives_sanitized.sdf

> <i_m_source_file_index>
413

> <i_lp_mmshare_version>
49012

> <i_f3d_flags>
0

> <s_epik_input>
W2NIXTFjKEJyKVtjSF1bY0hdW2NIXWMxUyg9TykoPU8pW0NIMl1bQ0BASF0oQyg9TylbTkhdQzIoQyNOKVtDSDJdW0NIMl0yKVtOSF1bQ0BIXShDKEYpKEYpRiljM1tjSF1bY0hdW2NIXVtjSF1bY0hdMw==

> <s_epik_cmdline>
J2VwaWtfcHl0aG9uJywgJy1waHQnLCAnMC41JywgJy1waCcsICc3LjUnLCAnLW50JywgJy1tYScsICcyMDAnLCAnLWltYWUnLCAnPGluZmlsZS5tYWU+JywgJy1vbWFlJywgJzxvdXRmaWxlLm1hZT4n

> <r_lp_tautomer_probability>
1

> <r_epik_Ionization_Penalty>
  0.0001

> <r_epik_Ionization_Penalty_Charging>
  0.0000

> <r_epik_Ionization_Penalty_Neutral>
  0.0001

> <r_epik_State_Penalty>
 -0.0000

> <r_epik_Charging_Adjusted_Penalty>
0

> <i_epik_Tot_Q>
0

> <i_epik_Tot_abs_Q>
0

> <s_lp_Force_Field>
OPLS3e

> <r_lp_Energy>
31.6153

> <b_lp_Chiralities_Consistent>
1

> <s_lp_Variant>
sdf/inactives_sanitized.sdf:413-1

$$$$
sdf/inactives_sanitized.sdf:414
                    3D
 Schrodinger Suite 2020-1.
 54 56  0  0  1  0            999 V2000
   -0.0840    1.5006    0.3437 N   0  0  0  0  0  0
   -0.7567    2.6760    0.4835 C   0  0  0  0  0  0
   -1.8301    3.0189   -0.2818 N   0  0  0  0  0  0
   -2.2248    2.1142   -1.2212 C   0  0  0  0  0  0
   -1.6093    0.9129   -1.4075 N   0  0  0  0  0  0
   -0.5367    0.6424   -0.6127 C   0  0  0  0  0  0
   -0.2590    3.6171    1.3936 N   0  0  0  0  0  0
   -3.3671    2.3993   -1.9805 N   0  0  0  0  0  0
   -1.0723    4.7787    1.8209 C   0  0  0  0  0  0
   -0.2558    5.9734    2.3554 C   0  0  0  0  0  0
    0.7067    5.5643    3.4702 C   0  0  0  0  0  0
    1.5714    4.4047    2.9772 C   0  0  0  0  0  0
    0.7255    3.2360    2.4326 C   0  0  0  0  0  0
   -3.6896    1.6225   -3.2000 C   0  0  0  0  0  0
   -5.1706    1.6734   -3.6279 C   0  0  0  0  0  0
   -5.6842    3.1063   -3.7648 C   0  0  0  0  0  0
   -5.4004    3.8579   -2.4649 C   0  0  0  0  0  0
   -3.9163    3.7733   -2.0526 C   0  0  0  0  0  0
    0.1477   -0.5827   -0.8211 N   0  0  0  0  0  0
   -0.3610   -1.5384   -1.6265 C   0  0  0  0  0  0
    1.2826   -0.9757    0.0294 C   0  0  0  0  0  0
    2.6407   -0.3690   -0.3731 C   0  0  0  0  0  0
    3.6884   -0.9081   -0.0132 O   0  0  0  0  0  0
    2.5557    0.8183   -1.0190 O   0  0  0  0  0  0
    3.7234    1.5432   -1.3767 C   0  0  0  0  0  0
    3.3098    2.8995   -1.9562 C   0  0  0  0  0  0
   -0.7482   -2.3825   -2.3174 N   0  0  0  0  0  0
   -1.6465    5.1554    0.9739 H   0  0  0  0  0  0
   -1.7972    4.4437    2.5641 H   0  0  0  0  0  0
    0.2735    6.4571    1.5330 H   0  0  0  0  0  0
   -0.9418    6.7315    2.7347 H   0  0  0  0  0  0
    1.3308    6.4081    3.7669 H   0  0  0  0  0  0
    0.1451    5.2607    4.3553 H   0  0  0  0  0  0
    2.2801    4.7341    2.2155 H   0  0  0  0  0  0
    2.1890    4.0432    3.8003 H   0  0  0  0  0  0
    1.4331    2.5168    2.0186 H   0  0  0  0  0  0
    0.2016    2.7270    3.2432 H   0  0  0  0  0  0
   -3.0427    1.9601   -4.0111 H   0  0  0  0  0  0
   -3.4566    0.5703   -3.0334 H   0  0  0  0  0  0
   -5.2827    1.1597   -4.5834 H   0  0  0  0  0  0
   -5.7778    1.0997   -2.9261 H   0  0  0  0  0  0
   -5.1869    3.6027   -4.5996 H   0  0  0  0  0  0
   -6.7522    3.1116   -3.9853 H   0  0  0  0  0  0
   -5.6755    4.9057   -2.5902 H   0  0  0  0  0  0
   -6.0314    3.4955   -1.6517 H   0  0  0  0  0  0
   -3.2951    4.3636   -2.7279 H   0  0  0  0  0  0
   -3.8449    4.2450   -1.0721 H   0  0  0  0  0  0
    1.0712   -0.6487    1.0478 H   0  0  0  0  0  0
    1.3719   -2.0607    0.1007 H   0  0  0  0  0  0
    4.3555    1.6951   -0.5002 H   0  0  0  0  0  0
    4.3031    0.9791   -2.1088 H   0  0  0  0  0  0
    4.1860    3.4838   -2.2378 H   0  0  0  0  0  0
    2.7418    3.4810   -1.2286 H   0  0  0  0  0  0
    2.6906    2.7772   -2.8455 H   0  0  0  0  0  0
  1  2  2  0  0  0
  1  6  1  0  0  0
  2  3  1  0  0  0
  2  7  1  0  0  0
  3  4  2  0  0  0
  4  5  1  0  0  0
  4  8  1  0  0  0
  5  6  2  0  0  0
  6 19  1  0  0  0
  7  9  1  0  0  0
  7 13  1  0  0  0
  8 14  1  0  0  0
  8 18  1  0  0  0
  9 10  1  0  0  0
  9 28  1  0  0  0
  9 29  1  0  0  0
 10 11  1  0  0  0
 10 30  1  0  0  0
 10 31  1  0  0  0
 11 12  1  0  0  0
 11 32  1  0  0  0
 11 33  1  0  0  0
 12 13  1  0  0  0
 12 34  1  0  0  0
 12 35  1  0  0  0
 13 36  1  0  0  0
 13 37  1  0  0  0
 14 15  1  0  0  0
 14 38  1  0  0  0
 14 39  1  0  0  0
 15 16  1  0  0  0
 15 40  1  0  0  0
 15 41  1  0  0  0
 16 17  1  0  0  0
 16 42  1  0  0  0
 16 43  1  0  0  0
 17 18  1  0  0  0
 17 44  1  0  0  0
 17 45  1  0  0  0
 18 46  1  0  0  0
 18 47  1  0  0  0
 19 20  1  0  0  0
 19 21  1  0  0  0
 20 27  3  0  0  0
 21 22  1  0  0  0
 21 48  1  0  0  0
 21 49  1  0  0  0
 22 23  2  0  0  0
 22 24  1  0  0  0
 24 25  1  0  0  0
 25 26  1  0  0  0
 25 50  1  0  0  0
 25 51  1  0  0  0
 26 52  1  0  0  0
 26 53  1  0  0  0
 26 54  1  0  0  0
M  END
> <chembl_id>
CHEMBL2316607

> <chembl_pref_name>
None

> <s_m_source_file>
sdf/inactives_sanitized.sdf

> <i_m_source_file_index>
414

> <i_lp_mmshare_version>
49012

> <i_m_ct_stereo_status>
1

> <i_f3d_flags>
0

> <s_epik_input>
W0NIMl0xW0NIMl1bQ0gyXVtDSDJdW0NIMl1OMWMybmMoTihDI04pW0NIMl1DKD1PKU9bQ0gyXVtDSDNdKW5jKG4yKU4zW0NIMl1bQ0gyXVtDSDJdW0NIMl1bQ0gyXTM=

> <s_epik_cmdline>
J2VwaWtfcHl0aG9uJywgJy1waHQnLCAnMC41JywgJy1waCcsICc3LjUnLCAnLW50JywgJy1tYScsICcyMDAnLCAnLWltYWUnLCAnPGluZmlsZS5tYWU+JywgJy1vbWFlJywgJzxvdXRmaWxlLm1hZT4n

> <r_lp_tautomer_probability>
1

> <r_epik_Ionization_Penalty>
  0.0001

> <r_epik_Ionization_Penalty_Charging>
  0.0000

> <r_epik_Ionization_Penalty_Neutral>
  0.0001

> <r_epik_State_Penalty>
 -0.0000

> <r_epik_Charging_Adjusted_Penalty>
0

> <i_epik_Tot_Q>
0

> <i_epik_Tot_abs_Q>
0

> <s_epik_Chemistry_Notes>
This compound has an ester and may undergo hydrolysis at high or low pH.

> <s_lp_Force_Field>
OPLS3e

> <r_lp_Energy>
37.518015

> <b_lp_Chiralities_Consistent>
1

> <s_lp_Variant>
sdf/inactives_sanitized.sdf:414-1

$$$$
sdf/inactives_sanitized.sdf:415
                    3D
 Schrodinger Suite 2020-1.
 52 51  0  0  1  0            999 V2000
   -2.9174    3.7360    0.1469 C   0  0  0  0  0  0
   -1.7693    2.8804   -0.0089 O   0  0  0  0  0  0
   -3.5376    3.6001    1.5599 C   0  0  0  0  0  0
   -3.9755    3.4641   -0.9513 C   0  0  0  0  0  0
   -2.3573    5.1628   -0.0275 C   0  0  0  0  0  0
   -1.7830    1.5222    0.0668 C   0  0  0  0  0  0
   -0.4972    1.0524   -0.1581 N   0  0  0  0  0  0
   -2.7766    0.8302    0.2951 O   0  0  0  0  0  0
   -0.1573   -0.3732   -0.1889 C   0  0  2  0  0  0
    1.3683   -0.4357   -0.0420 C   0  0  0  0  0  0
    2.1312   -1.0996   -0.8122 N   0  0  0  0  0  0
   -0.7117   -1.1236   -1.4408 C   0  0  0  0  0  0
   -0.4533   -0.4410   -2.8072 C   0  0  0  0  0  0
   -0.9195   -1.2636   -4.0233 C   0  0  0  0  0  0
   -0.0967   -2.5380   -4.2718 C   0  0  0  0  0  0
    3.4355   -1.0069   -0.4717 N   0  0  0  0  0  0
    4.4761   -1.5949   -1.1370 C   0  0  0  0  0  0
    4.3096   -2.5588   -2.5112 S   0  0  0  0  0  0
    5.6663   -1.2864   -0.5380 N   0  0  0  0  0  0
    7.0015   -1.7495   -0.9492 C   0  0  0  0  0  0
    7.8495   -2.1097    0.2812 C   0  0  0  0  0  0
    7.7032   -0.7210   -1.8536 C   0  0  0  0  0  0
   -4.3154    4.3465    1.7259 H   0  0  0  0  0  0
   -2.7841    3.7344    2.3370 H   0  0  0  0  0  0
   -3.9930    2.6228    1.7192 H   0  0  0  0  0  0
   -4.4334    2.4804   -0.8488 H   0  0  0  0  0  0
   -3.5328    3.5101   -1.9472 H   0  0  0  0  0  0
   -4.7816    4.1979   -0.9169 H   0  0  0  0  0  0
   -3.1408    5.9163    0.0640 H   0  0  0  0  0  0
   -1.8906    5.2926   -1.0053 H   0  0  0  0  0  0
   -1.5970    5.3878    0.7220 H   0  0  0  0  0  0
    0.2328    1.7223   -0.3521 H   0  0  0  0  0  0
   -0.5863   -0.8442    0.6983 H   0  0  0  0  0  0
    1.7265    0.1268    0.8199 H   0  0  0  0  0  0
   -0.3171   -2.1403   -1.4501 H   0  0  0  0  0  0
   -1.7891   -1.2476   -1.3220 H   0  0  0  0  0  0
   -0.9681    0.5205   -2.8255 H   0  0  0  0  0  0
    0.6056   -0.2087   -2.9226 H   0  0  0  0  0  0
   -1.9734   -1.5229   -3.9133 H   0  0  0  0  0  0
   -0.8588   -0.6354   -4.9129 H   0  0  0  0  0  0
   -0.4170   -3.0316   -5.1897 H   0  0  0  0  0  0
   -0.2090   -3.2571   -3.4605 H   0  0  0  0  0  0
    0.9650   -2.3104   -4.3732 H   0  0  0  0  0  0
    5.6415   -0.6610    0.2544 H   0  0  0  0  0  0
    6.9180   -2.6770   -1.5161 H   0  0  0  0  0  0
    8.8496   -2.4259   -0.0175 H   0  0  0  0  0  0
    7.4094   -2.9344    0.8433 H   0  0  0  0  0  0
    7.9782   -1.2548    0.9465 H   0  0  0  0  0  0
    8.7043   -1.0604   -2.1220 H   0  0  0  0  0  0
    7.8215    0.2408   -1.3531 H   0  0  0  0  0  0
    7.1580   -0.5703   -2.7860 H   0  0  0  0  0  0
    3.6233   -0.4397    0.3423 H   0  0  0  0  0  0
  1  2  1  0  0  0
  1  4  1  0  0  0
  1  5  1  0  0  0
  1  3  1  0  0  0
  2  6  1  0  0  0
  3 23  1  0  0  0
  3 24  1  0  0  0
  3 25  1  0  0  0
  4 26  1  0  0  0
  4 27  1  0  0  0
  4 28  1  0  0  0
  5 29  1  0  0  0
  5 30  1  0  0  0
  5 31  1  0  0  0
  6  7  1  0  0  0
  6  8  2  0  0  0
  7  9  1  0  0  0
  7 32  1  0  0  0
  9 12  1  0  0  0
  9 10  1  0  0  0
  9 33  1  0  0  0
 10 11  2  0  0  0
 10 34  1  0  0  0
 11 16  1  0  0  0
 12 13  1  0  0  0
 12 35  1  0  0  0
 12 36  1  0  0  0
 13 14  1  0  0  0
 13 37  1  0  0  0
 13 38  1  0  0  0
 14 15  1  0  0  0
 14 39  1  0  0  0
 14 40  1  0  0  0
 15 41  1  0  0  0
 15 42  1  0  0  0
 15 43  1  0  0  0
 16 17  1  0  0  0
 16 52  1  0  0  0
 17 18  2  0  0  0
 17 19  1  0  0  0
 19 20  1  0  0  0
 19 44  1  0  0  0
 20 21  1  0  0  0
 20 22  1  0  0  0
 20 45  1  0  0  0
 21 46  1  0  0  0
 21 47  1  0  0  0
 21 48  1  0  0  0
 22 49  1  0  0  0
 22 50  1  0  0  0
 22 51  1  0  0  0
M  END
> <chembl_id>
CHEMBL204451

> <chembl_pref_name>
None

> <i_m_ct_stereo_status>
1

> <s_m_source_file>
sdf/inactives_sanitized.sdf

> <i_m_source_file_index>
415

> <i_lp_mmshare_version>
49012

> <i_f3d_flags>
0

> <s_epik_input>
W0NIM11DKFtDSDNdKShbQ0gzXSlPQyg9TylbTkhdW0NAQEhdKFtDSDJdW0NIMl1bQ0gyXVtDSDNdKS9bQ0hdPU4vTj1DKFxbU0hdKVtOSF1bQ0hdKFtDSDNdKVtDSDNd

> <s_epik_cmdline>
J2VwaWtfcHl0aG9uJywgJy1waHQnLCAnMC41JywgJy1waCcsICc3LjUnLCAnLW50JywgJy1tYScsICcyMDAnLCAnLWltYWUnLCAnPGluZmlsZS5tYWU+JywgJy1vbWFlJywgJzxvdXRmaWxlLm1hZT4n

> <r_lp_tautomer_probability>
1

> <r_epik_Ionization_Penalty>
  0.0000

> <r_epik_Ionization_Penalty_Charging>
  0.0000

> <r_epik_Ionization_Penalty_Neutral>
  0.0000

> <r_epik_State_Penalty>
 -0.0000

> <r_epik_Charging_Adjusted_Penalty>
0

> <i_epik_Tot_Q>
0

> <i_epik_Tot_abs_Q>
0

> <s_epik_Chemistry_Notes>
This compound has an ester and may undergo hydrolysis at high or low pH. This compound has an imine and may undergo hydrolysis.

> <s_lp_Force_Field>
OPLS3e

> <r_lp_Energy>
17.128192

> <b_lp_Chiralities_Consistent>
1

> <s_lp_Variant>
sdf/inactives_sanitized.sdf:415-1

$$$$
sdf/inactives_sanitized.sdf:416
                    3D
 Schrodinger Suite 2020-1.
 40 41  0  0  1  0            999 V2000
   -5.3399    0.4661   -0.0650 C   0  0  0  0  0  0
   -4.4406   -0.5873    0.1030 C   0  0  0  0  0  0
   -3.0690   -0.3628   -0.0232 C   0  0  0  0  0  0
   -2.5914    0.9206   -0.3143 C   0  0  0  0  0  0
   -3.4961    1.9719   -0.4815 C   0  0  0  0  0  0
   -4.8674    1.7453   -0.3584 C   0  0  0  0  0  0
   -0.8574    1.2563   -0.4739 S   0  0  0  0  0  0
    0.0654   -0.2889   -0.2072 C   0  0  0  0  0  0
    1.6140   -0.1778   -0.2033 C   0  0  1  0  0  0
    2.3332   -1.5329    0.1118 C   0  0  1  0  0  0
    3.8780   -1.3728    0.1375 C   0  0  0  0  0  0
    4.3881   -0.7868   -1.1950 C   0  0  0  0  0  0
    3.6822    0.5352   -1.5525 C   0  0  0  0  0  0
    2.1513    0.3724   -1.5501 C   0  0  0  0  0  0
    1.8889   -2.1084    1.4773 C   0  0  0  0  0  0
    2.0193   -1.4428    2.5062 O   0  0  0  0  0  0
    1.3358   -3.3339    1.4687 N   0  0  0  0  0  0
    0.7569   -3.9856    2.6398 C   0  0  0  0  0  0
   -0.4778   -3.3224    3.0959 C   0  0  0  0  0  0
   -1.4478   -2.8013    3.4517 N   0  0  0  0  0  0
   -5.0827   -2.3326    0.5087 Br  0  0  0  0  0  0
   -6.4017    0.2935    0.0329 H   0  0  0  0  0  0
   -2.3957   -1.1947    0.1108 H   0  0  0  0  0  0
   -3.1394    2.9669   -0.7047 H   0  0  0  0  0  0
   -5.5630    2.5614   -0.4880 H   0  0  0  0  0  0
   -0.2766   -0.6747    0.7529 H   0  0  0  0  0  0
   -0.2512   -1.0100   -0.9617 H   0  0  0  0  0  0
    1.8923    0.5339    0.5774 H   0  0  0  0  0  0
    2.0600   -2.2723   -0.6450 H   0  0  0  0  0  0
    4.1896   -0.6658    0.9096 H   0  0  0  0  0  0
    4.3764   -2.3362    0.2613 H   0  0  0  0  0  0
    5.4659   -0.6267   -1.1415 H   0  0  0  0  0  0
    4.2298   -1.5105   -1.9963 H   0  0  0  0  0  0
    3.9686    1.3089   -0.8384 H   0  0  0  0  0  0
    4.0175    0.8830   -2.5302 H   0  0  0  0  0  0
    1.8455   -0.2880   -2.3634 H   0  0  0  0  0  0
    1.6863    1.3306   -1.7829 H   0  0  0  0  0  0
    1.2233   -3.8106    0.5859 H   0  0  0  0  0  0
    0.5125   -5.0174    2.3876 H   0  0  0  0  0  0
    1.4705   -4.0168    3.4648 H   0  0  0  0  0  0
  1  6  2  0  0  0
  1  2  1  0  0  0
  1 22  1  0  0  0
  2  3  2  0  0  0
  2 21  1  0  0  0
  3  4  1  0  0  0
  3 23  1  0  0  0
  4  7  1  0  0  0
  4  5  2  0  0  0
  5  6  1  0  0  0
  5 24  1  0  0  0
  6 25  1  0  0  0
  7  8  1  0  0  0
  8  9  1  0  0  0
  8 26  1  0  0  0
  8 27  1  0  0  0
  9 14  1  0  0  0
  9 10  1  0  0  0
  9 28  1  0  0  0
 10 11  1  0  0  0
 10 15  1  0  0  0
 10 29  1  0  0  0
 11 12  1  0  0  0
 11 30  1  0  0  0
 11 31  1  0  0  0
 12 13  1  0  0  0
 12 32  1  0  0  0
 12 33  1  0  0  0
 13 14  1  0  0  0
 13 34  1  0  0  0
 13 35  1  0  0  0
 14 36  1  0  0  0
 14 37  1  0  0  0
 15 16  2  0  0  0
 15 17  1  0  0  0
 17 18  1  0  0  0
 17 38  1  0  0  0
 18 19  1  0  0  0
 18 39  1  0  0  0
 18 40  1  0  0  0
 19 20  3  0  0  0
M  END
> <chembl_id>
CHEMBL382158

> <chembl_pref_name>
None

> <i_m_ct_stereo_status>
1

> <s_m_source_file>
sdf/inactives_sanitized.sdf

> <i_m_source_file_index>
416

> <i_lp_mmshare_version>
49012

> <i_f3d_flags>
0

> <s_epik_input>
QnJjMVtjSF1bY0hdW2NIXWMoW2NIXTEpU1tDSDJdW0NASF0yW0NAQEhdKFtDSDJdW0NIMl1bQ0gyXVtDSDJdMilDKD1PKVtOSF1bQ0gyXUMjTg==

> <s_epik_cmdline>
J2VwaWtfcHl0aG9uJywgJy1waHQnLCAnMC41JywgJy1waCcsICc3LjUnLCAnLW50JywgJy1tYScsICcyMDAnLCAnLWltYWUnLCAnPGluZmlsZS5tYWU+JywgJy1vbWFlJywgJzxvdXRmaWxlLm1hZT4n

> <r_lp_tautomer_probability>
1

> <r_epik_Ionization_Penalty>
  0.0000

> <r_epik_Ionization_Penalty_Charging>
  0.0000

> <r_epik_Ionization_Penalty_Neutral>
  0.0000

> <r_epik_State_Penalty>
 -0.0000

> <r_epik_Charging_Adjusted_Penalty>
0

> <i_epik_Tot_Q>
0

> <i_epik_Tot_abs_Q>
0

> <s_lp_Force_Field>
OPLS3e

> <r_lp_Energy>
17.997622

> <b_lp_Chiralities_Consistent>
1

> <s_lp_Variant>
sdf/inactives_sanitized.sdf:416-1

$$$$
sdf/inactives_sanitized.sdf:417
                    3D
 Schrodinger Suite 2020-1.
 38 39  0  0  1  0            999 V2000
   -2.4454    1.2374   -1.0281 C   0  0  0  0  0  0
   -0.7501    1.5401   -0.6265 S   0  0  0  0  0  0
    0.0949   -0.0699   -0.5498 C   0  0  0  0  0  0
    1.6081   -0.0309   -0.2060 C   0  0  1  0  0  0
    2.2460   -1.4517   -0.0412 C   0  0  1  0  0  0
    3.7590   -1.3728    0.3031 C   0  0  0  0  0  0
    4.5221   -0.5480   -0.7529 C   0  0  0  0  0  0
    3.9078    0.8509   -0.9451 C   0  0  0  0  0  0
    2.4073    0.7605   -1.2743 C   0  0  0  0  0  0
    1.5530   -2.2662    1.0766 C   0  0  0  0  0  0
    1.4376   -1.7955    2.2095 O   0  0  0  0  0  0
    1.0827   -3.4807    0.7424 N   0  0  0  0  0  0
    0.3484   -4.3603    1.6474 C   0  0  0  0  0  0
   -0.9649   -3.8131    2.0321 C   0  0  0  0  0  0
   -1.9961   -3.3833    2.3334 N   0  0  0  0  0  0
   -3.2437    2.3325   -1.1320 N   0  0  0  0  0  0
   -2.8454   -0.0507   -1.2077 N   0  0  0  0  0  0
   -4.1556   -0.2405   -1.5147 C   0  0  0  0  0  0
   -5.0563    0.8194   -1.6447 C   0  0  0  0  0  0
   -4.5475    2.1044   -1.4412 C   0  0  0  0  0  0
   -0.4473   -0.6569    0.1914 H   0  0  0  0  0  0
   -0.0523   -0.5762   -1.5045 H   0  0  0  0  0  0
    1.7201    0.4946    0.7452 H   0  0  0  0  0  0
    2.1135   -2.0139   -0.9686 H   0  0  0  0  0  0
    3.9208   -0.8552    1.2515 H   0  0  0  0  0  0
    4.2183   -2.3632    0.3122 H   0  0  0  0  0  0
    5.5699   -0.4546   -0.4646 H   0  0  0  0  0  0
    4.5168   -1.0806   -1.7054 H   0  0  0  0  0  0
    4.0487    1.4422   -0.0389 H   0  0  0  0  0  0
    4.4318    1.3811   -1.7412 H   0  0  0  0  0  0
    2.2707    0.2946   -2.2517 H   0  0  0  0  0  0
    2.0005    1.7656   -1.3887 H   0  0  0  0  0  0
    1.1648   -3.7874   -0.2159 H   0  0  0  0  0  0
    0.1828   -5.3180    1.1543 H   0  0  0  0  0  0
    0.9282   -4.5603    2.5502 H   0  0  0  0  0  0
   -4.4771   -1.2617   -1.6573 H   0  0  0  0  0  0
   -6.0948    0.6537   -1.8905 H   0  0  0  0  0  0
   -5.1843    2.9727   -1.5260 H   0  0  0  0  0  0
  1  2  1  0  0  0
  1 16  1  0  0  0
  1 17  2  0  0  0
  2  3  1  0  0  0
  3  4  1  0  0  0
  3 21  1  0  0  0
  3 22  1  0  0  0
  4  5  1  0  0  0
  4  9  1  0  0  0
  4 23  1  0  0  0
  5 10  1  0  0  0
  5  6  1  0  0  0
  5 24  1  0  0  0
  6  7  1  0  0  0
  6 25  1  0  0  0
  6 26  1  0  0  0
  7  8  1  0  0  0
  7 27  1  0  0  0
  7 28  1  0  0  0
  8  9  1  0  0  0
  8 29  1  0  0  0
  8 30  1  0  0  0
  9 31  1  0  0  0
  9 32  1  0  0  0
 10 11  2  0  0  0
 10 12  1  0  0  0
 12 13  1  0  0  0
 12 33  1  0  0  0
 13 14  1  0  0  0
 13 34  1  0  0  0
 13 35  1  0  0  0
 14 15  3  0  0  0
 16 20  2  0  0  0
 17 18  1  0  0  0
 18 19  2  0  0  0
 18 36  1  0  0  0
 19 20  1  0  0  0
 19 37  1  0  0  0
 20 38  1  0  0  0
M  END
> <chembl_id>
CHEMBL202622

> <chembl_pref_name>
None

> <i_m_ct_stereo_status>
1

> <s_m_source_file>
sdf/inactives_sanitized.sdf

> <i_m_source_file_index>
417

> <i_lp_mmshare_version>
49012

> <i_f3d_flags>
0

> <s_epik_input>
bjFbY0hdW2NIXVtjSF1uYzFTW0NIMl1bQ0BIXTJbQ0BASF0oW0NIMl1bQ0gyXVtDSDJdW0NIMl0yKUMoPU8pW05IXVtDSDJdQyNO

> <s_epik_cmdline>
J2VwaWtfcHl0aG9uJywgJy1waHQnLCAnMC41JywgJy1waCcsICc3LjUnLCAnLW50JywgJy1tYScsICcyMDAnLCAnLWltYWUnLCAnPGluZmlsZS5tYWU+JywgJy1vbWFlJywgJzxvdXRmaWxlLm1hZT4n

> <r_lp_tautomer_probability>
1

> <r_epik_Ionization_Penalty>
  0.0000

> <r_epik_Ionization_Penalty_Charging>
  0.0000

> <r_epik_Ionization_Penalty_Neutral>
  0.0000

> <r_epik_State_Penalty>
 -0.0000

> <r_epik_Charging_Adjusted_Penalty>
0

> <i_epik_Tot_Q>
0

> <i_epik_Tot_abs_Q>
0

> <s_lp_Force_Field>
OPLS3e

> <r_lp_Energy>
21.363412

> <b_lp_Chiralities_Consistent>
1

> <s_lp_Variant>
sdf/inactives_sanitized.sdf:417-1

$$$$
sdf/inactives_sanitized.sdf:418
                    3D
 Schrodinger Suite 2020-1.
 38 40  0  0  1  0            999 V2000
   -2.7174    0.0932   -0.0281 C   0  0  0  0  0  0
   -2.0094   -1.1027   -0.1046 N   0  0  0  0  0  0
   -0.6272   -1.2436   -0.2213 C   0  0  0  0  0  0
    0.0336   -0.0327   -0.0490 N   0  0  0  0  0  0
   -0.5683    1.2225   -0.1205 N   0  0  0  0  0  0
   -1.8456    1.2677   -0.0819 C   0  0  0  0  0  0
   -0.0375   -2.3135   -0.4132 O   0  0  0  0  0  0
   -2.4502    2.5830   -0.1051 C   0  0  0  0  0  0
   -2.8964    3.6509   -0.1302 N   0  0  0  0  0  0
   -3.9436    0.1922    0.0614 O   0  0  0  0  0  0
   -2.7780   -2.3897   -0.0986 C   0  0  0  0  0  0
    1.4475    0.0101    0.0077 C   0  0  0  0  0  0
    2.1393   -0.6929    1.0052 C   0  0  0  0  0  0
    3.5309   -0.6446    1.0640 C   0  0  0  0  0  0
    4.2449    0.1048    0.1304 C   0  0  0  0  0  0
    3.5751    0.8158   -0.8725 C   0  0  0  0  0  0
    2.1765    0.7649   -0.9249 C   0  0  0  0  0  0
    4.3603    1.6352   -1.8957 C   0  0  0  0  0  0
    3.7045    1.7323   -3.0537 F   0  0  0  0  0  0
    4.5480    2.8629   -1.4125 F   0  0  0  0  0  0
    5.5527    1.0899   -2.1431 F   0  0  0  0  0  0
   -3.8183   -2.5544   -1.2392 C   0  0  0  0  0  0
   -5.1416   -2.9304   -0.5577 C   0  0  0  0  0  0
   -4.7432   -3.5190    0.7959 C   0  0  0  0  0  0
   -3.5341   -2.6847    1.2184 C   0  0  0  0  0  0
   -2.1485   -3.2753   -0.2053 H   0  0  0  0  0  0
    1.6002   -1.2751    1.7391 H   0  0  0  0  0  0
    4.0571   -1.1880    1.8351 H   0  0  0  0  0  0
    5.3232    0.1326    0.1929 H   0  0  0  0  0  0
    1.6521    1.3110   -1.6963 H   0  0  0  0  0  0
   -3.9444   -1.6647   -1.8573 H   0  0  0  0  0  0
   -3.5091   -3.3626   -1.9039 H   0  0  0  0  0  0
   -5.7484   -2.0360   -0.4065 H   0  0  0  0  0  0
   -5.7321   -3.6274   -1.1535 H   0  0  0  0  0  0
   -5.5547   -3.4736    1.5232 H   0  0  0  0  0  0
   -4.4571   -4.5660    0.6821 H   0  0  0  0  0  0
   -3.8845   -1.7738    1.7040 H   0  0  0  0  0  0
   -2.8994   -3.1851    1.9505 H   0  0  0  0  0  0
  1 10  2  0  0  0
  1  6  1  0  0  0
  1  2  1  0  0  0
  2  3  1  0  0  0
  2 11  1  0  0  0
  3  7  2  0  0  0
  3  4  1  0  0  0
  4  5  1  0  0  0
  4 12  1  0  0  0
  5  6  2  0  0  0
  6  8  1  0  0  0
  8  9  3  0  0  0
 11 22  1  0  0  0
 11 25  1  0  0  0
 11 26  1  0  0  0
 12 17  1  0  0  0
 12 13  2  0  0  0
 13 14  1  0  0  0
 13 27  1  0  0  0
 14 15  2  0  0  0
 14 28  1  0  0  0
 15 16  1  0  0  0
 15 29  1  0  0  0
 16 17  2  0  0  0
 16 18  1  0  0  0
 17 30  1  0  0  0
 18 19  1  0  0  0
 18 20  1  0  0  0
 18 21  1  0  0  0
 22 23  1  0  0  0
 22 31  1  0  0  0
 22 32  1  0  0  0
 23 24  1  0  0  0
 23 33  1  0  0  0
 23 34  1  0  0  0
 24 25  1  0  0  0
 24 35  1  0  0  0
 24 36  1  0  0  0
 25 37  1  0  0  0
 25 38  1  0  0  0
M  END
> <chembl_id>
CHEMBL1078996

> <chembl_pref_name>
None

> <s_m_source_file>
sdf/inactives_sanitized.sdf

> <i_m_source_file_index>
418

> <i_lp_mmshare_version>
49012

> <i_m_ct_stereo_status>
1

> <i_f3d_flags>
0

> <s_epik_input>
W0NIMl0xW0NIMl1bQ0gyXVtDSDJdW0NIXTFuKGMyPU8pYyg9TyluKG5jMkMjTiktYzNbY0hdW2NIXVtjSF1jKFtjSF0zKUMoRikoRilG

> <s_epik_cmdline>
J2VwaWtfcHl0aG9uJywgJy1waHQnLCAnMC41JywgJy1waCcsICc3LjUnLCAnLW50JywgJy1tYScsICcyMDAnLCAnLWltYWUnLCAnPGluZmlsZS5tYWU+JywgJy1vbWFlJywgJzxvdXRmaWxlLm1hZT4n

> <r_lp_tautomer_probability>
1

> <r_epik_Ionization_Penalty>
  0.0000

> <r_epik_Ionization_Penalty_Charging>
  0.0000

> <r_epik_Ionization_Penalty_Neutral>
  0.0000

> <r_epik_State_Penalty>
 -0.0000

> <r_epik_Charging_Adjusted_Penalty>
1.15863366687663e-12

> <i_epik_Tot_Q>
0

> <i_epik_Tot_abs_Q>
0

> <s_lp_Force_Field>
OPLS3e

> <r_lp_Energy>
67.129534

> <b_lp_Chiralities_Consistent>
1

> <s_lp_Variant>
sdf/inactives_sanitized.sdf:418-1

$$$$
sdf/inactives_sanitized.sdf:419
                    3D
 Schrodinger Suite 2020-1.
 80 83  0  0  1  0            999 V2000
   -1.4753   -1.1166   -3.5092 N   0  0  0  0  0  0
   -0.8149   -0.2241   -2.7186 C   0  0  0  0  0  0
   -0.8708   -0.4905   -1.3966 N   0  0  0  0  0  0
   -0.3079    0.8145   -3.1526 O   0  0  0  0  0  0
   -0.2047    0.2670   -0.3325 C   0  0  2  0  0  0
    1.3151   -0.0059   -0.3952 C   0  0  0  0  0  0
    2.0774    0.9843   -0.8940 N   0  0  0  0  0  0
    1.7565   -1.0893   -0.0074 O   0  0  0  0  0  0
    3.5297    0.9202   -1.1067 C   0  0  2  0  0  0
    4.2741    1.6580    0.0262 C   0  0  0  0  0  0
    5.7795    1.4078    0.1114 C   0  0  0  0  0  0
    3.8960    1.4418   -2.5138 C   0  0  0  0  0  0
    6.5694    2.3083   -0.7709 N   0  0  3  0  0  0
    5.3985    1.4375   -2.8849 C   0  0  0  0  0  0
    6.2979    2.5184   -2.2281 C   0  0  1  0  0  0
    5.7889    3.9502   -2.4947 C   0  0  0  0  0  0
    3.7124    2.3892    0.8444 O   0  0  0  0  0  0
    8.4759    2.3753    1.0494 O   0  0  0  0  0  0
    8.7735    3.7364   -1.0815 O   0  0  0  0  0  0
    7.9089    3.2056   -0.0202 S   0  0  0  0  0  0
    7.1226    4.6023    0.7788 C   0  0  0  0  0  0
    6.3754    4.2991    1.8736 N   0  0  0  0  0  0
    5.7336    5.3166    2.5020 C   0  0  0  0  0  0
    5.8091    6.6429    2.0714 C   0  0  0  0  0  0
    6.5793    6.9342    0.9431 C   0  0  0  0  0  0
    7.2487    5.9033    0.2802 C   0  0  0  0  0  0
   -0.7830   -0.0455    1.0802 C   0  0  0  0  0  0
   -2.2475    0.4102    1.3986 C   0  0  0  0  0  0
   -2.5050    0.0161    2.8882 C   0  0  0  0  0  0
   -3.8535    0.5294    3.4449 C   0  0  0  0  0  0
   -3.9915    2.0574    3.2713 C   0  0  0  0  0  0
   -3.6671    2.5311    1.8380 C   0  0  0  0  0  0
   -2.3139    1.9675    1.3473 C   0  0  0  0  0  0
   -3.3194   -0.2267    0.4718 C   0  0  0  0  0  0
   -1.5247   -2.5554   -3.1715 C   0  0  0  0  0  0
   -0.2658   -3.2061   -3.7938 C   0  0  0  0  0  0
   -0.2415   -2.9719   -5.2029 O   0  0  0  0  0  0
   -0.2537   -1.5878   -5.5581 C   0  0  0  0  0  0
   -1.5061   -0.8926   -4.9673 C   0  0  0  0  0  0
   -1.3482   -1.3262   -1.0926 H   0  0  0  0  0  0
   -0.3620    1.3258   -0.5428 H   0  0  0  0  0  0
    1.6235    1.8377   -1.1866 H   0  0  0  0  0  0
    3.8611   -0.1197   -1.0573 H   0  0  0  0  0  0
    6.1051    1.5448    1.1427 H   0  0  0  0  0  0
    6.0257    0.3744   -0.1321 H   0  0  0  0  0  0
    3.3765    0.8171   -3.2430 H   0  0  0  0  0  0
    3.4824    2.4406   -2.6614 H   0  0  0  0  0  0
    5.8171    0.4483   -2.6936 H   0  0  0  0  0  0
    5.4691    1.5645   -3.9663 H   0  0  0  0  0  0
    7.2653    2.4276   -2.7241 H   0  0  0  0  0  0
    5.5120    4.0832   -3.5408 H   0  0  0  0  0  0
    6.5539    4.6940   -2.2760 H   0  0  0  0  0  0
    4.9166    4.1892   -1.8854 H   0  0  0  0  0  0
    5.1470    5.0509    3.3691 H   0  0  0  0  0  0
    5.2837    7.4257    2.5983 H   0  0  0  0  0  0
    6.6550    7.9503    0.5847 H   0  0  0  0  0  0
    7.8431    6.1149   -0.5967 H   0  0  0  0  0  0
   -0.7170   -1.1229    1.2475 H   0  0  0  0  0  0
   -0.1181    0.3999    1.8243 H   0  0  0  0  0  0
   -2.4648   -1.0689    2.9982 H   0  0  0  0  0  0
   -1.7058    0.3999    3.5257 H   0  0  0  0  0  0
   -4.6890    0.0215    2.9639 H   0  0  0  0  0  0
   -3.9319    0.2761    4.5030 H   0  0  0  0  0  0
   -4.9968    2.3750    3.5500 H   0  0  0  0  0  0
   -3.3147    2.5541    3.9684 H   0  0  0  0  0  0
   -4.4685    2.2371    1.1594 H   0  0  0  0  0  0
   -3.6424    3.6212    1.8104 H   0  0  0  0  0  0
   -1.5130    2.4000    1.9504 H   0  0  0  0  0  0
   -2.1415    2.3235    0.3316 H   0  0  0  0  0  0
   -4.3412   -0.0470    0.8001 H   0  0  0  0  0  0
   -3.1910   -1.3079    0.4087 H   0  0  0  0  0  0
   -3.2589    0.1710   -0.5409 H   0  0  0  0  0  0
   -1.7137   -2.7828   -2.1217 H   0  0  0  0  0  0
   -2.4114   -2.9279   -3.6867 H   0  0  0  0  0  0
    0.6456   -2.8228   -3.3302 H   0  0  0  0  0  0
   -0.2699   -4.2795   -3.6047 H   0  0  0  0  0  0
    0.6637   -1.1049   -5.2154 H   0  0  0  0  0  0
   -0.2548   -1.4939   -6.6439 H   0  0  0  0  0  0
   -2.4035   -1.4100   -5.3092 H   0  0  0  0  0  0
   -1.6564    0.1484   -5.2576 H   0  0  0  0  0  0
  1  2  1  0  0  0
  1 35  1  0  0  0
  1 39  1  0  0  0
  2  3  1  0  0  0
  2  4  2  0  0  0
  3  5  1  0  0  0
  3 40  1  0  0  0
  5  6  1  0  0  0
  5 27  1  0  0  0
  5 41  1  0  0  0
  6  7  1  0  0  0
  6  8  2  0  0  0
  7  9  1  0  0  0
  7 42  1  0  0  0
  9 10  1  0  0  0
  9 12  1  0  0  0
  9 43  1  0  0  0
 10 11  1  0  0  0
 10 17  2  0  0  0
 11 13  1  0  0  0
 11 44  1  0  0  0
 11 45  1  0  0  0
 12 14  1  0  0  0
 12 46  1  0  0  0
 12 47  1  0  0  0
 13 15  1  0  0  0
 13 20  1  0  0  0
 14 15  1  0  0  0
 14 48  1  0  0  0
 14 49  1  0  0  0
 15 16  1  0  0  0
 15 50  1  0  0  0
 16 51  1  0  0  0
 16 52  1  0  0  0
 16 53  1  0  0  0
 18 20  2  0  0  0
 19 20  2  0  0  0
 20 21  1  0  0  0
 21 22  2  0  0  0
 21 26  1  0  0  0
 22 23  1  0  0  0
 23 24  2  0  0  0
 23 54  1  0  0  0
 24 25  1  0  0  0
 24 55  1  0  0  0
 25 26  2  0  0  0
 25 56  1  0  0  0
 26 57  1  0  0  0
 27 28  1  0  0  0
 27 58  1  0  0  0
 27 59  1  0  0  0
 28 29  1  0  0  0
 28 33  1  0  0  0
 28 34  1  0  0  0
 29 30  1  0  0  0
 29 60  1  0  0  0
 29 61  1  0  0  0
 30 31  1  0  0  0
 30 62  1  0  0  0
 30 63  1  0  0  0
 31 32  1  0  0  0
 31 64  1  0  0  0
 31 65  1  0  0  0
 32 33  1  0  0  0
 32 66  1  0  0  0
 32 67  1  0  0  0
 33 68  1  0  0  0
 33 69  1  0  0  0
 34 70  1  0  0  0
 34 71  1  0  0  0
 34 72  1  0  0  0
 35 36  1  0  0  0
 35 73  1  0  0  0
 35 74  1  0  0  0
 36 37  1  0  0  0
 36 75  1  0  0  0
 36 76  1  0  0  0
 37 38  1  0  0  0
 38 39  1  0  0  0
 38 77  1  0  0  0
 38 78  1  0  0  0
 39 79  1  0  0  0
 39 80  1  0  0  0
M  END
> <chembl_id>
CHEMBL1807701

> <chembl_pref_name>
None

> <i_m_ct_stereo_status>
1

> <s_m_source_file>
sdf/inactives_sanitized.sdf

> <i_m_source_file_index>
419

> <i_lp_mmshare_version>
49012

> <i_f3d_flags>
0

> <s_epik_input>
W0NIMl0xW0NIMl1PW0NIMl1bQ0gyXU4xQyg9TylbTkhdW0NAQEhdKFtDSDJdQzIoW0NIM10pW0NIMl1bQ0gyXVtDSDJdW0NIMl1bQ0gyXTIpQyg9TylbTkhdW0NAQEhdM0MoPU8pW0NIMl1OKFtDQEhdKFtDSDNdKVtDSDJdW0NIMl0zKVMoPU8pKD1PKWM0bltjSF1bY0hdW2NIXVtjSF00

> <s_epik_cmdline>
J2VwaWtfcHl0aG9uJywgJy1waHQnLCAnMC41JywgJy1waCcsICc3LjUnLCAnLW50JywgJy1tYScsICcyMDAnLCAnLWltYWUnLCAnPGluZmlsZS5tYWU+JywgJy1vbWFlJywgJzxvdXRmaWxlLm1hZT4n

> <r_lp_tautomer_probability>
1

> <r_epik_Ionization_Penalty>
  0.0000

> <r_epik_Ionization_Penalty_Charging>
  0.0000

> <r_epik_Ionization_Penalty_Neutral>
  0.0000

> <r_epik_State_Penalty>
 -0.0000

> <r_epik_Charging_Adjusted_Penalty>
0

> <i_epik_Tot_Q>
0

> <i_epik_Tot_abs_Q>
0

> <s_lp_Force_Field>
OPLS3e

> <r_lp_Energy>
53.362011

> <b_lp_Chiralities_Consistent>
1

> <s_lp_Variant>
sdf/inactives_sanitized.sdf:419-1

$$$$
sdf/inactives_sanitized.sdf:420
                    3D
 Schrodinger Suite 2020-1.
 75 77  0  0  1  0            999 V2000
   -4.1447   -0.4153   -3.1145 N   0  0  0  0  0  0
   -3.6059    0.7766   -3.2272 C   0  0  0  0  0  0
    0.1108   -0.2099   -3.0222 C   0  0  0  0  0  0
    0.7238    0.9397   -2.1236 C   0  0  0  0  0  0
   -3.7948    1.5351   -2.1173 O   0  0  0  0  0  0
   -4.4673    0.6940   -1.2933 C   0  0  0  0  0  0
   -4.7029   -0.4716   -1.8407 N   0  0  0  0  0  0
   -1.3771    1.5696    0.0518 C   0  0  0  0  0  0
    0.6664   -0.2349   -4.2508 N   0  0  0  0  0  0
   -4.8146    1.1582    0.1085 C   0  0  0  0  0  0
    1.4372   -2.5566   -4.8003 C   0  0  0  0  0  0
   -0.4557    0.5252    0.0228 N   0  0  0  0  0  0
   -3.6704    1.9522    0.7993 C   0  0  2  0  0  0
    0.8693    0.6521   -0.6215 C   0  0  1  0  0  0
   -2.4722    1.1631    0.7369 O   0  0  0  0  0  0
    0.5625   -1.3267   -5.2334 C   0  0  2  0  0  0
    2.0139   -3.2746   -5.7928 N   0  0  0  0  0  0
   -2.8345    1.3423   -4.3720 C   0  0  0  0  0  0
   -3.9502    2.4128    2.2718 C   0  0  0  0  0  0
    1.1383    1.9793   -2.6416 O   0  0  0  0  0  0
   -0.7474   -0.9828   -2.5946 O   0  0  0  0  0  0
   -1.2396    2.6846   -0.4575 O   0  0  0  0  0  0
    1.6297   -2.8894   -3.6309 O   0  0  0  0  0  0
   -2.8119    0.6774   -5.6028 C   0  0  0  0  0  0
   -2.1135    2.5314   -4.2140 C   0  0  0  0  0  0
   -1.3619    2.3803   -6.4971 C   0  0  0  0  0  0
   -1.3750    3.0480   -5.2751 C   0  0  0  0  0  0
   -2.0807    1.1994   -6.6660 C   0  0  0  0  0  0
   -0.6426    2.8800   -7.5273 F   0  0  0  0  0  0
    1.7320   -0.6130   -0.3470 C   0  0  0  0  0  0
    1.9745   -2.9637   -7.2276 C   0  0  0  0  0  0
   -4.1445    1.2074    3.2252 C   0  0  0  0  0  0
   -5.2159    3.3029    2.3264 C   0  0  0  0  0  0
   -2.7597    3.2612    2.7848 C   0  0  0  0  0  0
    0.7249   -0.8735   -6.7122 C   0  0  0  0  0  0
    3.1663   -0.5758   -0.9209 C   0  0  0  0  0  0
    3.9741   -1.8415   -0.5867 C   0  0  0  0  0  0
    1.9589   -1.4405   -7.4135 C   0  0  0  0  0  0
    5.3907   -1.8189   -1.1758 C   0  0  0  0  0  0
    1.4120    0.4259   -4.4160 H   0  0  0  0  0  0
   -5.7023    1.7866    0.0511 H   0  0  0  0  0  0
   -5.0968    0.2990    0.7168 H   0  0  0  0  0  0
   -0.5585   -0.1997    0.7178 H   0  0  0  0  0  0
   -3.5455    2.8633    0.2104 H   0  0  0  0  0  0
    1.3893    1.4768   -0.1288 H   0  0  0  0  0  0
   -0.4622   -1.6971   -5.1479 H   0  0  0  0  0  0
    2.5966   -4.0482   -5.5065 H   0  0  0  0  0  0
   -3.3580   -0.2449   -5.7398 H   0  0  0  0  0  0
   -2.1086    3.0523   -3.2672 H   0  0  0  0  0  0
   -0.8127    3.9614   -5.1487 H   0  0  0  0  0  0
   -2.0638    0.6851   -7.6155 H   0  0  0  0  0  0
    1.7959   -0.7552    0.7334 H   0  0  0  0  0  0
    1.2196   -1.5034   -0.7171 H   0  0  0  0  0  0
    1.0796   -3.4207   -7.6534 H   0  0  0  0  0  0
    2.8408   -3.4081   -7.7187 H   0  0  0  0  0  0
   -4.2664    1.5333    4.2592 H   0  0  0  0  0  0
   -3.2898    0.5305    3.2013 H   0  0  0  0  0  0
   -5.0302    0.6241    2.9730 H   0  0  0  0  0  0
   -6.1216    2.7435    2.0914 H   0  0  0  0  0  0
   -5.1519    4.1337    1.6224 H   0  0  0  0  0  0
   -5.3630    3.7309    3.3192 H   0  0  0  0  0  0
   -2.9475    3.6594    3.7829 H   0  0  0  0  0  0
   -2.5612    4.1101    2.1290 H   0  0  0  0  0  0
   -1.8406    2.6771    2.8461 H   0  0  0  0  0  0
   -0.1640   -1.1638   -7.2750 H   0  0  0  0  0  0
    0.7590    0.2151   -6.7762 H   0  0  0  0  0  0
    3.1314   -0.4643   -2.0056 H   0  0  0  0  0  0
    3.6886    0.3011   -0.5352 H   0  0  0  0  0  0
    4.0382   -1.9615    0.4957 H   0  0  0  0  0  0
    3.4475   -2.7204   -0.9620 H   0  0  0  0  0  0
    2.8737   -0.9958   -7.0173 H   0  0  0  0  0  0
    1.9323   -1.1925   -8.4752 H   0  0  0  0  0  0
    5.9334   -2.7290   -0.9191 H   0  0  0  0  0  0
    5.9646   -0.9732   -0.7957 H   0  0  0  0  0  0
    5.3653   -1.7452   -2.2637 H   0  0  0  0  0  0
  1  2  2  0  0  0
  1  7  1  0  0  0
  2  5  1  0  0  0
  2 18  1  0  0  0
  3  4  1  0  0  0
  3  9  1  0  0  0
  3 21  2  0  0  0
  4 14  1  0  0  0
  4 20  2  0  0  0
  5  6  1  0  0  0
  6  7  2  0  0  0
  6 10  1  0  0  0
  8 15  1  0  0  0
  8 12  1  0  0  0
  8 22  2  0  0  0
  9 16  1  0  0  0
  9 40  1  0  0  0
 10 13  1  0  0  0
 10 41  1  0  0  0
 10 42  1  0  0  0
 11 16  1  0  0  0
 11 17  1  0  0  0
 11 23  2  0  0  0
 12 14  1  0  0  0
 12 43  1  0  0  0
 13 15  1  0  0  0
 13 19  1  0  0  0
 13 44  1  0  0  0
 14 30  1  0  0  0
 14 45  1  0  0  0
 16 35  1  0  0  0
 16 46  1  0  0  0
 17 31  1  0  0  0
 17 47  1  0  0  0
 18 24  2  0  0  0
 18 25  1  0  0  0
 19 32  1  0  0  0
 19 33  1  0  0  0
 19 34  1  0  0  0
 24 28  1  0  0  0
 24 48  1  0  0  0
 25 27  2  0  0  0
 25 49  1  0  0  0
 26 27  1  0  0  0
 26 29  1  0  0  0
 26 28  2  0  0  0
 27 50  1  0  0  0
 28 51  1  0  0  0
 30 36  1  0  0  0
 30 52  1  0  0  0
 30 53  1  0  0  0
 31 38  1  0  0  0
 31 54  1  0  0  0
 31 55  1  0  0  0
 32 56  1  0  0  0
 32 57  1  0  0  0
 32 58  1  0  0  0
 33 59  1  0  0  0
 33 60  1  0  0  0
 33 61  1  0  0  0
 34 62  1  0  0  0
 34 63  1  0  0  0
 34 64  1  0  0  0
 35 38  1  0  0  0
 35 65  1  0  0  0
 35 66  1  0  0  0
 36 37  1  0  0  0
 36 67  1  0  0  0
 36 68  1  0  0  0
 37 39  1  0  0  0
 37 69  1  0  0  0
 37 70  1  0  0  0
 38 71  1  0  0  0
 38 72  1  0  0  0
 39 73  1  0  0  0
 39 74  1  0  0  0
 39 75  1  0  0  0
M  END
> <chembl_id>
CHEMBL426617

> <chembl_pref_name>
None

> <i_m_ct_stereo_status>
1

> <s_m_source_file>
sdf/inactives_sanitized.sdf

> <i_m_source_file_index>
420

> <i_lp_mmshare_version>
49012

> <i_f3d_flags>
0

> <s_epik_input>
W2NIXTFbY0hdYyhGKVtjSF1bY0hdYzEtYzJubmMobzIpW0NIMl1bQ0BASF0oQyhbQ0gzXSkoW0NIM10pW0NIM10pT0MoPU8pW05IXVtDQEBIXShbQ0gyXVtDSDJdW0NIMl1bQ0gzXSlDKD1PKUMoPU8pW05IXVtDQEhdKEMzPU8pW0NIMl1bQ0gyXVtDSDJdW05IXTM=

> <s_epik_cmdline>
J2VwaWtfcHl0aG9uJywgJy1waHQnLCAnMC41JywgJy1waCcsICc3LjUnLCAnLW50JywgJy1tYScsICcyMDAnLCAnLWltYWUnLCAnPGluZmlsZS5tYWU+JywgJy1vbWFlJywgJzxvdXRmaWxlLm1hZT4n

> <r_lp_tautomer_probability>
1

> <r_epik_Ionization_Penalty>
  0.0000

> <r_epik_Ionization_Penalty_Charging>
  0.0000

> <r_epik_Ionization_Penalty_Neutral>
  0.0000

> <r_epik_State_Penalty>
 -0.0000

> <r_epik_Charging_Adjusted_Penalty>
0

> <i_epik_Tot_Q>
0

> <i_epik_Tot_abs_Q>
0

> <s_epik_Chemistry_Notes>
This compound has an ester and may undergo hydrolysis at high or low pH.

> <s_lp_Force_Field>
OPLS3e

> <r_lp_Energy>
44.873027

> <b_lp_Chiralities_Consistent>
1

> <s_lp_Variant>
sdf/inactives_sanitized.sdf:420-1

$$$$
sdf/inactives_sanitized.sdf:421
                    3D
 Schrodinger Suite 2020-1.
 68 70  0  0  1  0            999 V2000
   -3.2649    1.1475    3.7227 N   0  0  0  0  0  0
    2.8479    0.4736   -1.4520 C   0  0  0  0  0  0
   -4.2653    0.3785    3.3608 C   0  0  0  0  0  0
    2.3216   -0.6435   -0.4478 C   0  0  0  0  0  0
   -4.6297    0.5816    2.0673 O   0  0  0  0  0  0
   -3.7569    1.5347    1.6563 C   0  0  0  0  0  0
   -2.9390    1.9127    2.6081 N   0  0  0  0  0  0
    3.4797   -0.0669   -2.5194 N   0  0  0  0  0  0
   -0.4754    1.4330    0.2542 C   0  0  0  0  0  0
    4.0297    0.6211   -3.5928 C   0  0  0  0  0  0
   -3.8718    2.0539    0.2338 C   0  0  0  0  0  0
    0.1502    0.2250   -0.0245 N   0  0  0  0  0  0
    4.6964    2.1502   -4.8933 N   0  0  0  0  0  0
    4.5966   -0.0145   -4.7086 C   0  0  0  0  0  0
   -2.5376    2.5947   -0.3515 C   0  0  1  0  0  0
    4.0980    1.9370   -3.7171 N   0  0  0  0  0  0
    1.3909   -0.1630    0.6660 C   0  0  1  0  0  0
   -1.6333    1.4847   -0.4389 O   0  0  0  0  0  0
   -5.0016   -0.6312    4.1796 C   0  0  0  0  0  0
   -2.6402    3.3131   -1.7418 C   0  0  0  0  0  0
    2.6908   -1.8161   -0.5714 O   0  0  0  0  0  0
    2.6597    1.6708   -1.2245 O   0  0  0  0  0  0
   -0.0644    2.3157    1.0109 O   0  0  0  0  0  0
    5.0251    0.9961   -5.5475 C   0  0  0  0  0  0
   -4.7111   -0.7795    5.5409 C   0  0  0  0  0  0
   -5.9849   -1.4359    3.5924 C   0  0  0  0  0  0
   -6.3699   -2.5179    5.7104 C   0  0  0  0  0  0
   -6.6683   -2.3778    4.3573 C   0  0  0  0  0  0
   -5.3936   -1.7224    6.3050 C   0  0  0  0  0  0
   -7.0330   -3.4332    6.4527 F   0  0  0  0  0  0
    1.1455   -1.2535    1.7457 C   0  0  0  0  0  0
   -1.2373    3.8107   -2.1746 C   0  0  0  0  0  0
   -3.5623    4.5534   -1.6436 C   0  0  0  0  0  0
   -3.1893    2.3659   -2.8375 C   0  0  0  0  0  0
    0.1777   -0.8224    2.8678 C   0  0  0  0  0  0
    0.0362   -1.8838    3.9729 C   0  0  0  0  0  0
   -0.9778   -1.4892    5.0543 C   0  0  0  0  0  0
    3.5442   -1.0737   -2.5596 H   0  0  0  0  0  0
   -4.2413    1.2564   -0.4117 H   0  0  0  0  0  0
   -4.6400    2.8249    0.2164 H   0  0  0  0  0  0
   -0.3320   -0.4653   -0.5810 H   0  0  0  0  0  0
    4.8757    3.0813   -5.2411 H   0  0  0  0  0  0
    4.6797   -1.0778   -4.8801 H   0  0  0  0  0  0
   -2.1631    3.3382    0.3555 H   0  0  0  0  0  0
    1.8708    0.6850    1.1616 H   0  0  0  0  0  0
    5.5135    1.0059   -6.5109 H   0  0  0  0  0  0
   -3.9557   -0.1670    6.0122 H   0  0  0  0  0  0
   -6.2239   -1.3384    2.5434 H   0  0  0  0  0  0
   -7.4269   -2.9978    3.9024 H   0  0  0  0  0  0
   -5.1663   -1.8352    7.3548 H   0  0  0  0  0  0
    0.7377   -2.1520    1.2774 H   0  0  0  0  0  0
    2.1000   -1.5380    2.1931 H   0  0  0  0  0  0
   -1.2786    4.3786   -3.1052 H   0  0  0  0  0  0
   -0.5442    2.9850   -2.3409 H   0  0  0  0  0  0
   -0.7923    4.4589   -1.4182 H   0  0  0  0  0  0
   -3.2592    5.2142   -0.8302 H   0  0  0  0  0  0
   -4.6043    4.2821   -1.4749 H   0  0  0  0  0  0
   -3.5418    5.1420   -2.5622 H   0  0  0  0  0  0
   -3.2071    2.8533   -3.8134 H   0  0  0  0  0  0
   -4.2094    2.0451   -2.6249 H   0  0  0  0  0  0
   -2.5788    1.4677   -2.9385 H   0  0  0  0  0  0
    0.5222    0.1149    3.3082 H   0  0  0  0  0  0
   -0.8076   -0.6201    2.4449 H   0  0  0  0  0  0
   -0.2683   -2.8341    3.5322 H   0  0  0  0  0  0
    1.0068   -2.0600    4.4385 H   0  0  0  0  0  0
   -1.0402   -2.2539    5.8290 H   0  0  0  0  0  0
   -1.9741   -1.3686    4.6298 H   0  0  0  0  0  0
   -0.7020   -0.5503    5.5352 H   0  0  0  0  0  0
  1  3  2  0  0  0
  1  7  1  0  0  0
  2  4  1  0  0  0
  2  8  1  0  0  0
  2 22  2  0  0  0
  3  5  1  0  0  0
  3 19  1  0  0  0
  4 17  1  0  0  0
  4 21  2  0  0  0
  5  6  1  0  0  0
  6  7  2  0  0  0
  6 11  1  0  0  0
  8 10  1  0  0  0
  8 38  1  0  0  0
  9 18  1  0  0  0
  9 12  1  0  0  0
  9 23  2  0  0  0
 10 14  1  0  0  0
 10 16  2  0  0  0
 11 15  1  0  0  0
 11 39  1  0  0  0
 11 40  1  0  0  0
 12 17  1  0  0  0
 12 41  1  0  0  0
 13 16  1  0  0  0
 13 24  1  0  0  0
 13 42  1  0  0  0
 14 24  2  0  0  0
 14 43  1  0  0  0
 15 18  1  0  0  0
 15 20  1  0  0  0
 15 44  1  0  0  0
 17 31  1  0  0  0
 17 45  1  0  0  0
 19 25  2  0  0  0
 19 26  1  0  0  0
 20 32  1  0  0  0
 20 33  1  0  0  0
 20 34  1  0  0  0
 24 46  1  0  0  0
 25 29  1  0  0  0
 25 47  1  0  0  0
 26 28  2  0  0  0
 26 48  1  0  0  0
 27 28  1  0  0  0
 27 30  1  0  0  0
 27 29  2  0  0  0
 28 49  1  0  0  0
 29 50  1  0  0  0
 31 35  1  0  0  0
 31 51  1  0  0  0
 31 52  1  0  0  0
 32 53  1  0  0  0
 32 54  1  0  0  0
 32 55  1  0  0  0
 33 56  1  0  0  0
 33 57  1  0  0  0
 33 58  1  0  0  0
 34 59  1  0  0  0
 34 60  1  0  0  0
 34 61  1  0  0  0
 35 36  1  0  0  0
 35 62  1  0  0  0
 35 63  1  0  0  0
 36 37  1  0  0  0
 36 64  1  0  0  0
 36 65  1  0  0  0
 37 66  1  0  0  0
 37 67  1  0  0  0
 37 68  1  0  0  0
M  END
> <chembl_id>
CHEMBL186149

> <chembl_pref_name>
None

> <i_m_ct_stereo_status>
1

> <s_m_source_file>
sdf/inactives_sanitized.sdf

> <i_m_source_file_index>
421

> <i_lp_mmshare_version>
49012

> <i_f3d_flags>
0

> <s_epik_input>
W2NIXTFbY0hdYyhGKVtjSF1bY0hdYzEtYzJubmMobzIpW0NIMl1bQ0BIXShDKFtDSDNdKShbQ0gzXSlbQ0gzXSlPQyg9TylbTkhdW0NAQEhdKFtDSDJdW0NIMl1bQ0gyXVtDSDNdKUMoPU8pQyg9TylbTkhdYzNbY0hdW2NIXVtuSF1uMw==

> <s_epik_cmdline>
J2VwaWtfcHl0aG9uJywgJy1waHQnLCAnMC41JywgJy1waCcsICc3LjUnLCAnLW50JywgJy1tYScsICcyMDAnLCAnLWltYWUnLCAnPGluZmlsZS5tYWU+JywgJy1vbWFlJywgJzxvdXRmaWxlLm1hZT4n

> <r_lp_tautomer_probability>
1

> <r_epik_Ionization_Penalty>
  0.0000

> <r_epik_Ionization_Penalty_Charging>
  0.0000

> <r_epik_Ionization_Penalty_Neutral>
  0.0000

> <r_epik_State_Penalty>
 -0.0000

> <r_epik_Charging_Adjusted_Penalty>
0

> <i_epik_Tot_Q>
0

> <i_epik_Tot_abs_Q>
0

> <s_epik_Chemistry_Notes>
This compound has an ester and may undergo hydrolysis at high or low pH.

> <s_lp_Force_Field>
OPLS3e

> <r_lp_Energy>
37.414989

> <b_lp_Chiralities_Consistent>
1

> <s_lp_Variant>
sdf/inactives_sanitized.sdf:421-1

$$$$
sdf/inactives_sanitized.sdf:422
                    3D
 Schrodinger Suite 2020-1.
 59 62  0  0  1  0            999 V2000
   -7.9703    1.6100   -2.9478 C   0  0  0  0  0  0
   -7.2894    2.4125   -1.3812 S   0  0  0  0  0  0
   -6.2592    3.3777   -1.7828 O   0  0  0  0  0  0
   -8.4144    2.8542   -0.5496 O   0  0  0  0  0  0
   -6.4680    1.0452   -0.5246 C   0  0  0  0  0  0
   -5.0672    1.0348   -0.5050 C   0  0  0  0  0  0
   -4.3461    0.0156    0.1287 C   0  0  0  0  0  0
   -5.0602   -1.0113    0.7539 C   0  0  0  0  0  0
   -6.4526   -1.0231    0.7421 C   0  0  0  0  0  0
   -7.1684   -0.0059    0.1041 C   0  0  0  0  0  0
   -8.6247   -0.0987    0.1130 C   0  0  0  0  0  0
   -9.7795   -0.1739    0.1191 N   0  0  0  0  0  0
   -2.8561    0.0239    0.1307 C   0  0  0  0  0  0
   -2.1369   -1.1544   -0.1051 C   0  0  0  0  0  0
   -0.7449   -1.1454   -0.1203 C   0  0  0  0  0  0
   -0.0539    0.0462    0.1034 C   0  0  0  0  0  0
    1.4695    0.0711    0.0578 C   0  0  0  0  0  0
    2.0355    0.7087   -1.2289 C   0  0  2  0  0  0
    1.5683    0.0138   -2.4316 N   0  0  0  0  0  0
    1.7920    0.4058   -3.6984 C   0  0  0  0  0  0
    2.4345    1.4226   -3.9721 O   0  0  0  0  0  0
    1.2097   -0.5162   -4.8006 C   0  0  1  0  0  0
    0.9954    0.2589   -6.0485 N   0  0  1  0  0  0
    1.6035   -0.3859   -7.2276 C   0  0  2  0  0  0
    1.0194   -1.8214   -7.3529 C   0  0  0  0  0  0
    1.3310   -2.6489   -6.0719 C   0  0  0  0  0  0
    2.1116   -1.7793   -5.0459 C   0  0  1  0  0  0
    3.4403   -1.3138   -5.7159 C   0  0  0  0  0  0
    3.1358   -0.4775   -6.9905 C   0  0  0  0  0  0
    3.5082    0.7935   -1.1808 C   0  0  0  0  0  0
    4.6629    0.8593   -1.1423 N   0  0  0  0  0  0
   -0.7590    1.2248    0.3478 C   0  0  0  0  0  0
   -2.1507    1.2118    0.3605 C   0  0  0  0  0  0
   -8.4681    2.3737   -3.5443 H   0  0  0  0  0  0
   -8.6833    0.8326   -2.6764 H   0  0  0  0  0  0
   -7.1439    1.1785   -3.5119 H   0  0  0  0  0  0
   -4.5203    1.8259   -0.9965 H   0  0  0  0  0  0
   -4.5361   -1.8103    1.2583 H   0  0  0  0  0  0
   -6.9672   -1.8373    1.2341 H   0  0  0  0  0  0
   -2.6561   -2.0835   -0.2911 H   0  0  0  0  0  0
   -0.2088   -2.0629   -0.3148 H   0  0  0  0  0  0
    1.8331    0.6134    0.9323 H   0  0  0  0  0  0
    1.8565   -0.9432    0.1727 H   0  0  0  0  0  0
    1.6751    1.7384   -1.2775 H   0  0  0  0  0  0
    1.0117   -0.8137   -2.2763 H   0  0  0  0  0  0
    0.2291   -0.8224   -4.4296 H   0  0  0  0  0  0
    0.0018    0.3049   -6.2234 H   0  0  0  0  0  0
    1.3854    0.2028   -8.1193 H   0  0  0  0  0  0
   -0.0581   -1.7764   -7.5192 H   0  0  0  0  0  0
    1.4380   -2.3175   -8.2296 H   0  0  0  0  0  0
    0.4058   -3.0192   -5.6275 H   0  0  0  0  0  0
    1.9128   -3.5353   -6.3294 H   0  0  0  0  0  0
    2.3010   -2.3362   -4.1267 H   0  0  0  0  0  0
    4.0477   -0.7372   -5.0169 H   0  0  0  0  0  0
    4.0456   -2.1825   -5.9787 H   0  0  0  0  0  0
    3.5597    0.5232   -6.8919 H   0  0  0  0  0  0
    3.6219   -0.9252   -7.8583 H   0  0  0  0  0  0
   -0.2318    2.1521    0.5196 H   0  0  0  0  0  0
   -2.6802    2.1342    0.5511 H   0  0  0  0  0  0
  1  2  1  0  0  0
  1 34  1  0  0  0
  1 35  1  0  0  0
  1 36  1  0  0  0
  2  3  2  0  0  0
  2  4  2  0  0  0
  2  5  1  0  0  0
  5  6  2  0  0  0
  5 10  1  0  0  0
  6  7  1  0  0  0
  6 37  1  0  0  0
  7  8  2  0  0  0
  7 13  1  0  0  0
  8  9  1  0  0  0
  8 38  1  0  0  0
  9 10  2  0  0  0
  9 39  1  0  0  0
 10 11  1  0  0  0
 11 12  3  0  0  0
 13 14  2  0  0  0
 13 33  1  0  0  0
 14 15  1  0  0  0
 14 40  1  0  0  0
 15 16  2  0  0  0
 15 41  1  0  0  0
 16 17  1  0  0  0
 16 32  1  0  0  0
 17 18  1  0  0  0
 17 42  1  0  0  0
 17 43  1  0  0  0
 18 19  1  0  0  0
 18 30  1  0  0  0
 18 44  1  0  0  0
 19 20  1  0  0  0
 19 45  1  0  0  0
 20 21  2  0  0  0
 20 22  1  0  0  0
 22 23  1  0  0  0
 22 27  1  0  0  0
 22 46  1  0  0  0
 23 24  1  0  0  0
 23 47  1  0  0  0
 24 25  1  0  0  0
 24 29  1  0  0  0
 24 48  1  0  0  0
 25 26  1  0  0  0
 25 49  1  0  0  0
 25 50  1  0  0  0
 26 27  1  0  0  0
 26 51  1  0  0  0
 26 52  1  0  0  0
 27 28  1  0  0  0
 27 53  1  0  0  0
 28 29  1  0  0  0
 28 54  1  0  0  0
 28 55  1  0  0  0
 29 56  1  0  0  0
 29 57  1  0  0  0
 30 31  3  0  0  0
 32 33  2  0  0  0
 32 58  1  0  0  0
 33 59  1  0  0  0
M  END
> <chembl_id>
CHEMBL3695335

> <chembl_pref_name>
None

> <i_m_ct_stereo_status>
1

> <s_m_source_file>
sdf/inactives_sanitized.sdf

> <i_m_source_file_index>
422

> <i_lp_mmshare_version>
49012

> <i_f3d_flags>
0

> <s_epik_input>
TiNDYzFbY0hdW2NIXWMoW2NIXWMxUyg9TykoPU8pW0NIM10pLWMyW2NIXVtjSF1jKFtjSF1bY0hdMilbQ0gyXVtDQEBIXShDI04pW05IXUMoPU8pW0NAQEhdKFtOSF1bQ0BIXTM0KVtDQEBIXShbQ0gyXVtDSDJdMylbQ0gyXVtDSDJdNA==

> <s_epik_cmdline>
J2VwaWtfcHl0aG9uJywgJy1waHQnLCAnMC41JywgJy1waCcsICc3LjUnLCAnLW50JywgJy1tYScsICcyMDAnLCAnLWltYWUnLCAnPGluZmlsZS5tYWU+JywgJy1vbWFlJywgJzxvdXRmaWxlLm1hZT4n

> <r_epik_Ionization_Penalty>
  0.4101

> <r_epik_Ionization_Penalty_Charging>
  0.0000

> <r_epik_Ionization_Penalty_Neutral>
  0.4101

> <r_epik_State_Penalty>
  0.4100

> <r_epik_Charging_Adjusted_Penalty>
0.410033589345069

> <i_epik_Tot_Q>
0

> <i_epik_Tot_abs_Q>
0

> <s_lp_Force_Field>
OPLS3e

> <r_lp_Energy>
38.878417

> <b_lp_Chiralities_Consistent>
1

> <s_lp_Variant>
sdf/inactives_sanitized.sdf:422-1

$$$$
sdf/inactives_sanitized.sdf:422
                    3D
 Schrodinger Suite 2020-1.
 60 63  0  0  1  0            999 V2000
   -8.1085    1.1343   -2.9951 C   0  0  0  0  0  0
   -7.2257    2.2731   -1.7751 S   0  0  0  0  0  0
   -6.1624    2.9737   -2.5047 O   0  0  0  0  0  0
   -8.2324    3.0455   -1.0387 O   0  0  0  0  0  0
   -6.4425    1.1324   -0.6068 C   0  0  0  0  0  0
   -5.0470    1.0097   -0.6456 C   0  0  0  0  0  0
   -4.3561    0.1599    0.2277 C   0  0  0  0  0  0
   -5.0981   -0.5834    1.1515 C   0  0  0  0  0  0
   -6.4860   -0.4834    1.2011 C   0  0  0  0  0  0
   -7.1703    0.3677    0.3290 C   0  0  0  0  0  0
   -8.6253    0.4106    0.4322 C   0  0  0  0  0  0
   -9.7792    0.4434    0.5136 N   0  0  0  0  0  0
   -2.8691    0.0554    0.1814 C   0  0  0  0  0  0
   -2.2345   -1.1850    0.3281 C   0  0  0  0  0  0
   -0.8459   -1.2816    0.2966 C   0  0  0  0  0  0
   -0.0725   -0.1345    0.1143 C   0  0  0  0  0  0
    1.4470   -0.2312    0.0659 C   0  0  0  0  0  0
    2.0286   -0.1981   -1.3648 C   0  0  2  0  0  0
    1.6353   -1.3549   -2.1740 N   0  0  0  0  0  0
    0.6170   -1.3875   -3.0520 C   0  0  0  0  0  0
   -0.0975   -0.4067   -3.2757 O   0  0  0  0  0  0
    0.4010   -2.7472   -3.7658 C   0  0  1  0  0  0
   -0.9309   -2.6221   -4.5640 N   0  3  0  0  0  0
   -0.7541   -2.9608   -6.0640 C   0  0  2  0  0  0
   -0.1830   -4.4002   -6.1295 C   0  0  0  0  0  0
    1.1801   -4.4876   -5.3842 C   0  0  0  0  0  0
    1.5653   -3.1215   -4.7480 C   0  0  1  0  0  0
    1.6353   -2.0694   -5.8981 C   0  0  0  0  0  0
    0.2710   -1.9482   -6.6331 C   0  0  0  0  0  0
    3.4959   -0.0819   -1.3577 C   0  0  0  0  0  0
    4.6494    0.0089   -1.3526 N   0  0  0  0  0  0
   -0.6921    1.1059   -0.0369 C   0  0  0  0  0  0
   -2.0804    1.1982   -0.0029 C   0  0  0  0  0  0
   -8.5940    1.7460   -3.7549 H   0  0  0  0  0  0
   -8.8557    0.5438   -2.4671 H   0  0  0  0  0  0
   -7.3750    0.4776   -3.4614 H   0  0  0  0  0  0
   -4.4821    1.5831   -1.3655 H   0  0  0  0  0  0
   -4.5997   -1.2430    1.8470 H   0  0  0  0  0  0
   -7.0214   -1.0774    1.9295 H   0  0  0  0  0  0
   -2.8169   -2.0845    0.4645 H   0  0  0  0  0  0
   -0.3754   -2.2475    0.4091 H   0  0  0  0  0  0
    1.8587    0.5942    0.6493 H   0  0  0  0  0  0
    1.7759   -1.1327    0.5861 H   0  0  0  0  0  0
    1.7035    0.7241   -1.8518 H   0  0  0  0  0  0
    2.1134   -2.2194   -1.9654 H   0  0  0  0  0  0
    0.2208   -3.4960   -2.9923 H   0  0  0  0  0  0
   -1.6181   -3.2476   -4.1682 H   0  0  0  0  0  0
   -1.7402   -2.8704   -6.5212 H   0  0  0  0  0  0
   -0.8936   -5.1063   -5.6969 H   0  0  0  0  0  0
   -0.0589   -4.7016   -7.1708 H   0  0  0  0  0  0
    1.1386   -5.2612   -4.6157 H   0  0  0  0  0  0
    1.9615   -4.8061   -6.0765 H   0  0  0  0  0  0
    2.5218   -3.1983   -4.2279 H   0  0  0  0  0  0
    1.9492   -1.0965   -5.5173 H   0  0  0  0  0  0
    2.4101   -2.3600   -6.6096 H   0  0  0  0  0  0
   -0.1158   -0.9322   -6.5362 H   0  0  0  0  0  0
    0.4059   -2.1166   -7.7025 H   0  0  0  0  0  0
   -0.1012    1.9990   -0.1811 H   0  0  0  0  0  0
   -2.5410    2.1693   -0.1132 H   0  0  0  0  0  0
   -1.2817   -1.6784   -4.4752 H   0  0  0  0  0  0
  1  2  1  0  0  0
  1 34  1  0  0  0
  1 35  1  0  0  0
  1 36  1  0  0  0
  2  3  2  0  0  0
  2  4  2  0  0  0
  2  5  1  0  0  0
  5  6  2  0  0  0
  5 10  1  0  0  0
  6  7  1  0  0  0
  6 37  1  0  0  0
  7  8  2  0  0  0
  7 13  1  0  0  0
  8  9  1  0  0  0
  8 38  1  0  0  0
  9 10  2  0  0  0
  9 39  1  0  0  0
 10 11  1  0  0  0
 11 12  3  0  0  0
 13 14  2  0  0  0
 13 33  1  0  0  0
 14 15  1  0  0  0
 14 40  1  0  0  0
 15 16  2  0  0  0
 15 41  1  0  0  0
 16 17  1  0  0  0
 16 32  1  0  0  0
 17 18  1  0  0  0
 17 42  1  0  0  0
 17 43  1  0  0  0
 18 19  1  0  0  0
 18 30  1  0  0  0
 18 44  1  0  0  0
 19 20  1  0  0  0
 19 45  1  0  0  0
 20 21  2  0  0  0
 20 22  1  0  0  0
 22 23  1  0  0  0
 22 27  1  0  0  0
 22 46  1  0  0  0
 23 24  1  0  0  0
 23 47  1  0  0  0
 23 60  1  0  0  0
 24 25  1  0  0  0
 24 29  1  0  0  0
 24 48  1  0  0  0
 25 26  1  0  0  0
 25 49  1  0  0  0
 25 50  1  0  0  0
 26 27  1  0  0  0
 26 51  1  0  0  0
 26 52  1  0  0  0
 27 28  1  0  0  0
 27 53  1  0  0  0
 28 29  1  0  0  0
 28 54  1  0  0  0
 28 55  1  0  0  0
 29 56  1  0  0  0
 29 57  1  0  0  0
 30 31  3  0  0  0
 32 33  2  0  0  0
 32 58  1  0  0  0
 33 59  1  0  0  0
M  CHG  1  23   1
M  END
> <chembl_id>
CHEMBL3695335

> <chembl_pref_name>
None

> <i_m_ct_stereo_status>
1

> <s_m_source_file>
sdf/inactives_sanitized.sdf

> <i_m_source_file_index>
422

> <i_lp_mmshare_version>
49012

> <i_f3d_flags>
0

> <s_epik_input>
TiNDYzFbY0hdW2NIXWMoW2NIXWMxUyg9TykoPU8pW0NIM10pLWMyW2NIXVtjSF1jKFtjSF1bY0hdMilbQ0gyXVtDQEBIXShDI04pW05IXUMoPU8pW0NAQEhdKFtOSF1bQ0BIXTM0KVtDQEBIXShbQ0gyXVtDSDJdMylbQ0gyXVtDSDJdNA==

> <s_epik_cmdline>
J2VwaWtfcHl0aG9uJywgJy1waHQnLCAnMC41JywgJy1waCcsICc3LjUnLCAnLW50JywgJy1tYScsICcyMDAnLCAnLWltYWUnLCAnPGluZmlsZS5tYWU+JywgJy1vbWFlJywgJzxvdXRmaWxlLm1hZT4n

> <r_epik_Ionization_Penalty>
  0.4114

> <r_epik_Ionization_Penalty_Charging>
  0.4113

> <r_epik_Ionization_Penalty_Neutral>
  0.0002

> <r_epik_State_Penalty>
  0.4113

> <r_epik_Charging_Adjusted_Penalty>
0.822612897831462

> <i_epik_Tot_Q>
1

> <i_epik_Tot_abs_Q>
1

> <s_lp_Force_Field>
OPLS3e

> <r_lp_Energy>
50.827489

> <b_lp_Chiralities_Consistent>
1

> <s_lp_Variant>
sdf/inactives_sanitized.sdf:422-2

$$$$
sdf/inactives_sanitized.sdf:423
                    3D
 Schrodinger Suite 2020-1.
 57 61  0  0  1  0            999 V2000
    0.3606    0.7610   -2.7784 O   0  0  0  0  0  0
   -0.2968   -0.2395   -2.4809 C   0  0  0  0  0  0
   -0.5296   -0.6007   -1.2053 N   0  0  0  0  0  0
   -0.0787    0.1085   -0.0018 C   0  0  1  0  0  0
    1.4470    0.0240    0.2444 C   0  0  0  0  0  0
    1.9975   -1.3966    0.2045 C   0  0  0  0  0  0
    2.7657   -1.8187   -0.8801 C   0  0  0  0  0  0
    3.2382   -3.1264   -0.9313 C   0  0  0  0  0  0
    2.9582   -4.0326    0.1012 C   0  0  0  0  0  0
    2.1927   -3.5898    1.1893 C   0  0  0  0  0  0
    1.7146   -2.2833    1.2423 C   0  0  0  0  0  0
    3.4650   -5.4379    0.0434 C   0  0  0  0  0  0
    3.8291   -6.1239    1.2170 C   0  0  0  0  0  0
    4.3066   -7.4362    1.1739 C   0  0  0  0  0  0
    4.4236   -8.0794   -0.0562 C   0  0  0  0  0  0
    4.8914   -9.4529   -0.4230 C   0  0  0  0  0  0
    4.7499   -9.4674   -1.9473 C   0  0  0  0  0  0
    5.0239  -10.4084   -2.6887 O   0  0  0  0  0  0
    4.2726   -8.2583   -2.2999 N   0  0  0  0  0  0
    4.0700   -7.4197   -1.2143 C   0  0  0  0  0  0
    3.5926   -6.1105   -1.1847 C   0  0  0  0  0  0
   -0.5617    1.5025    0.0351 C   0  0  0  0  0  0
   -0.9408    2.5956    0.0654 N   0  0  0  0  0  0
   -0.8682   -1.1933   -3.5610 C   0  0  1  0  0  0
   -1.0736   -0.4572   -4.8336 N   0  0  1  0  0  0
   -0.4728   -1.1472   -5.9907 C   0  0  2  0  0  0
   -1.0588   -2.5859   -6.0616 C   0  0  0  0  0  0
   -0.7397   -3.3683   -4.7541 C   0  0  0  0  0  0
    0.0394   -2.4609   -3.7606 C   0  0  1  0  0  0
    1.3658   -2.0168   -4.4494 C   0  0  0  0  0  0
    1.0595   -1.2328   -5.7558 C   0  0  0  0  0  0
   -1.1016   -1.4163   -1.0424 H   0  0  0  0  0  0
   -0.5824   -0.3817    0.8321 H   0  0  0  0  0  0
    1.9741    0.6366   -0.4894 H   0  0  0  0  0  0
    1.6927    0.4699    1.2094 H   0  0  0  0  0  0
    2.9936   -1.1374   -1.6866 H   0  0  0  0  0  0
    3.8345   -3.4254   -1.7807 H   0  0  0  0  0  0
    1.9483   -4.2612    1.9991 H   0  0  0  0  0  0
    1.1180   -1.9661    2.0854 H   0  0  0  0  0  0
    3.7555   -5.6381    2.1789 H   0  0  0  0  0  0
    4.5812   -7.9350    2.0917 H   0  0  0  0  0  0
    5.9321   -9.6209   -0.1445 H   0  0  0  0  0  0
    4.2661  -10.2309    0.0161 H   0  0  0  0  0  0
    4.0876   -7.9966   -3.2572 H   0  0  0  0  0  0
    3.3125   -5.6207   -2.1058 H   0  0  0  0  0  0
   -1.8511   -1.4912   -3.1897 H   0  0  0  0  0  0
   -2.0666   -0.4079   -5.0110 H   0  0  0  0  0  0
   -0.6934   -0.5909   -6.9024 H   0  0  0  0  0  0
   -2.1375   -2.5450   -6.2216 H   0  0  0  0  0  0
   -0.6472   -3.1134   -6.9232 H   0  0  0  0  0  0
   -1.6617   -3.7282   -4.2949 H   0  0  0  0  0  0
   -0.1537   -4.2597   -4.9834 H   0  0  0  0  0  0
    0.2323   -2.9835   -2.8219 H   0  0  0  0  0  0
    1.9679   -1.4054   -3.7777 H   0  0  0  0  0  0
    1.9771   -2.8922   -4.6738 H   0  0  0  0  0  0
    1.4864   -0.2298   -5.6994 H   0  0  0  0  0  0
    1.5414   -1.7170   -6.6062 H   0  0  0  0  0  0
  1  2  2  0  0  0
  2  3  1  0  0  0
  2 24  1  0  0  0
  3  4  1  0  0  0
  3 32  1  0  0  0
  4  5  1  0  0  0
  4 22  1  0  0  0
  4 33  1  0  0  0
  5  6  1  0  0  0
  5 34  1  0  0  0
  5 35  1  0  0  0
  6  7  2  0  0  0
  6 11  1  0  0  0
  7  8  1  0  0  0
  7 36  1  0  0  0
  8  9  2  0  0  0
  8 37  1  0  0  0
  9 10  1  0  0  0
  9 12  1  0  0  0
 10 11  2  0  0  0
 10 38  1  0  0  0
 11 39  1  0  0  0
 12 13  2  0  0  0
 12 21  1  0  0  0
 13 14  1  0  0  0
 13 40  1  0  0  0
 14 15  2  0  0  0
 14 41  1  0  0  0
 15 16  1  0  0  0
 15 20  1  0  0  0
 16 17  1  0  0  0
 16 42  1  0  0  0
 16 43  1  0  0  0
 17 18  2  0  0  0
 17 19  1  0  0  0
 19 20  1  0  0  0
 19 44  1  0  0  0
 20 21  2  0  0  0
 21 45  1  0  0  0
 22 23  3  0  0  0
 24 25  1  0  0  0
 24 29  1  0  0  0
 24 46  1  0  0  0
 25 26  1  0  0  0
 25 47  1  0  0  0
 26 27  1  0  0  0
 26 31  1  0  0  0
 26 48  1  0  0  0
 27 28  1  0  0  0
 27 49  1  0  0  0
 27 50  1  0  0  0
 28 29  1  0  0  0
 28 51  1  0  0  0
 28 52  1  0  0  0
 29 30  1  0  0  0
 29 53  1  0  0  0
 30 31  1  0  0  0
 30 54  1  0  0  0
 30 55  1  0  0  0
 31 56  1  0  0  0
 31 57  1  0  0  0
M  END
> <chembl_id>
CHEMBL3695331

> <chembl_pref_name>
None

> <i_m_ct_stereo_status>
1

> <s_m_source_file>
sdf/inactives_sanitized.sdf

> <i_m_source_file_index>
423

> <i_lp_mmshare_version>
49012

> <i_f3d_flags>
0

> <s_epik_input>
W0NIMl0xW0NIMl1bQ0BASF0oW0NIMl1bQ0gyXTIpW0NASF0oW05IXVtDQEhdMTIpQyg9TylbTkhdW0NASF0oQyNOKVtDSDJdYzNbY0hdW2NIXWMoW2NIXVtjSF0zKS1jKFtjSF1bY0hdNClbY0hdYyhjNDUpW05IXUMoPU8pW0NIMl01

> <s_epik_cmdline>
J2VwaWtfcHl0aG9uJywgJy1waHQnLCAnMC41JywgJy1waCcsICc3LjUnLCAnLW50JywgJy1tYScsICcyMDAnLCAnLWltYWUnLCAnPGluZmlsZS5tYWU+JywgJy1vbWFlJywgJzxvdXRmaWxlLm1hZT4n

> <r_epik_Ionization_Penalty>
  0.4101

> <r_epik_Ionization_Penalty_Charging>
  0.0000

> <r_epik_Ionization_Penalty_Neutral>
  0.4101

> <r_epik_State_Penalty>
  0.4100

> <r_epik_Charging_Adjusted_Penalty>
0.410033589345069

> <i_epik_Tot_Q>
0

> <i_epik_Tot_abs_Q>
0

> <s_lp_Force_Field>
OPLS3e

> <r_lp_Energy>
36.289254

> <b_lp_Chiralities_Consistent>
1

> <s_lp_Variant>
sdf/inactives_sanitized.sdf:423-1

$$$$
sdf/inactives_sanitized.sdf:423
                    3D
 Schrodinger Suite 2020-1.
 58 62  0  0  1  0            999 V2000
   -1.1273   -2.5680   -0.3127 O   0  0  0  0  0  0
   -1.0939   -1.8346   -1.3045 C   0  0  0  0  0  0
   -0.6093   -0.5805   -1.2600 N   0  0  0  0  0  0
   -0.0279    0.0642   -0.0785 C   0  0  1  0  0  0
    1.5164    0.0076   -0.0581 C   0  0  0  0  0  0
    2.0761   -1.4093   -0.0456 C   0  0  0  0  0  0
    2.0494   -2.1551    1.1323 C   0  0  0  0  0  0
    2.5287   -3.4618    1.1385 C   0  0  0  0  0  0
    3.0436   -4.0447   -0.0280 C   0  0  0  0  0  0
    3.0681   -3.2796   -1.2026 C   0  0  0  0  0  0
    2.5895   -1.9728   -1.2139 C   0  0  0  0  0  0
    3.5548   -5.4497   -0.0202 C   0  0  0  0  0  0
    3.4195   -6.2753   -1.1520 C   0  0  0  0  0  0
    3.8938   -7.5898   -1.1541 C   0  0  0  0  0  0
    4.5155   -8.0926   -0.0134 C   0  0  0  0  0  0
    5.1174   -9.4295    0.2878 C   0  0  0  0  0  0
    5.6160   -9.2647    1.7259 C   0  0  0  0  0  0
    6.1892  -10.1223    2.3939 O   0  0  0  0  0  0
    5.3018   -8.0093    2.0995 N   0  0  0  0  0  0
    4.6554   -7.2946    1.1024 C   0  0  0  0  0  0
    4.1848   -5.9827    1.1180 C   0  0  0  0  0  0
   -0.5305    1.4434    0.0281 C   0  0  0  0  0  0
   -0.9261    2.5275    0.1115 N   0  0  0  0  0  0
   -1.6044   -2.3004   -2.6920 C   0  0  1  0  0  0
   -1.8840   -3.8281   -2.5689 N   0  3  0  0  0  0
   -3.3254   -4.1998   -2.9929 C   0  0  2  0  0  0
   -3.5021   -3.6997   -4.4493 C   0  0  0  0  0  0
   -3.2865   -2.1608   -4.5347 C   0  0  0  0  0  0
   -2.9121   -1.5647   -3.1476 C   0  0  1  0  0  0
   -4.0721   -1.9020   -2.1601 C   0  0  0  0  0  0
   -4.2818   -3.4377   -2.0418 C   0  0  0  0  0  0
   -0.5217   -0.0706   -2.1272 H   0  0  0  0  0  0
   -0.4028   -0.4131    0.8297 H   0  0  0  0  0  0
    1.9217    0.5538   -0.9120 H   0  0  0  0  0  0
    1.8946    0.5354    0.8191 H   0  0  0  0  0  0
    1.6468   -1.7290    2.0398 H   0  0  0  0  0  0
    2.4823   -4.0232    2.0601 H   0  0  0  0  0  0
    3.4687   -3.6905   -2.1176 H   0  0  0  0  0  0
    2.6129   -1.4047   -2.1325 H   0  0  0  0  0  0
    2.9329   -5.9059   -2.0425 H   0  0  0  0  0  0
    3.7731   -8.2001   -2.0368 H   0  0  0  0  0  0
    4.3810  -10.2321    0.2390 H   0  0  0  0  0  0
    5.9541   -9.6617   -0.3717 H   0  0  0  0  0  0
    5.5186   -7.6336    3.0110 H   0  0  0  0  0  0
    4.3164   -5.3763    2.0022 H   0  0  0  0  0  0
   -0.7757   -2.1999   -3.3954 H   0  0  0  0  0  0
   -1.2318   -4.3358   -3.1493 H   0  0  0  0  0  0
   -3.4069   -5.2835   -2.8989 H   0  0  0  0  0  0
   -2.8028   -4.2142   -5.1105 H   0  0  0  0  0  0
   -4.4990   -3.9573   -4.8108 H   0  0  0  0  0  0
   -2.5073   -1.9322   -5.2638 H   0  0  0  0  0  0
   -4.1901   -1.6790   -4.9121 H   0  0  0  0  0  0
   -2.7618   -0.4860   -3.2218 H   0  0  0  0  0  0
   -3.8849   -1.4681   -1.1767 H   0  0  0  0  0  0
   -4.9934   -1.4319   -2.5077 H   0  0  0  0  0  0
   -4.1164   -3.7578   -1.0116 H   0  0  0  0  0  0
   -5.3175   -3.6930   -2.2715 H   0  0  0  0  0  0
   -1.7350   -4.1148   -1.6110 H   0  0  0  0  0  0
  1  2  2  0  0  0
  2  3  1  0  0  0
  2 24  1  0  0  0
  3  4  1  0  0  0
  3 32  1  0  0  0
  4  5  1  0  0  0
  4 22  1  0  0  0
  4 33  1  0  0  0
  5  6  1  0  0  0
  5 34  1  0  0  0
  5 35  1  0  0  0
  6  7  2  0  0  0
  6 11  1  0  0  0
  7  8  1  0  0  0
  7 36  1  0  0  0
  8  9  2  0  0  0
  8 37  1  0  0  0
  9 10  1  0  0  0
  9 12  1  0  0  0
 10 11  2  0  0  0
 10 38  1  0  0  0
 11 39  1  0  0  0
 12 13  2  0  0  0
 12 21  1  0  0  0
 13 14  1  0  0  0
 13 40  1  0  0  0
 14 15  2  0  0  0
 14 41  1  0  0  0
 15 16  1  0  0  0
 15 20  1  0  0  0
 16 17  1  0  0  0
 16 42  1  0  0  0
 16 43  1  0  0  0
 17 18  2  0  0  0
 17 19  1  0  0  0
 19 20  1  0  0  0
 19 44  1  0  0  0
 20 21  2  0  0  0
 21 45  1  0  0  0
 22 23  3  0  0  0
 24 25  1  0  0  0
 24 29  1  0  0  0
 24 46  1  0  0  0
 25 26  1  0  0  0
 25 47  1  0  0  0
 25 58  1  0  0  0
 26 27  1  0  0  0
 26 31  1  0  0  0
 26 48  1  0  0  0
 27 28  1  0  0  0
 27 49  1  0  0  0
 27 50  1  0  0  0
 28 29  1  0  0  0
 28 51  1  0  0  0
 28 52  1  0  0  0
 29 30  1  0  0  0
 29 53  1  0  0  0
 30 31  1  0  0  0
 30 54  1  0  0  0
 30 55  1  0  0  0
 31 56  1  0  0  0
 31 57  1  0  0  0
M  CHG  1  25   1
M  END
> <chembl_id>
CHEMBL3695331

> <chembl_pref_name>
None

> <i_m_ct_stereo_status>
1

> <s_m_source_file>
sdf/inactives_sanitized.sdf

> <i_m_source_file_index>
423

> <i_lp_mmshare_version>
49012

> <i_f3d_flags>
0

> <s_epik_input>
W0NIMl0xW0NIMl1bQ0BASF0oW0NIMl1bQ0gyXTIpW0NASF0oW05IXVtDQEhdMTIpQyg9TylbTkhdW0NASF0oQyNOKVtDSDJdYzNbY0hdW2NIXWMoW2NIXVtjSF0zKS1jKFtjSF1bY0hdNClbY0hdYyhjNDUpW05IXUMoPU8pW0NIMl01

> <s_epik_cmdline>
J2VwaWtfcHl0aG9uJywgJy1waHQnLCAnMC41JywgJy1waCcsICc3LjUnLCAnLW50JywgJy1tYScsICcyMDAnLCAnLWltYWUnLCAnPGluZmlsZS5tYWU+JywgJy1vbWFlJywgJzxvdXRmaWxlLm1hZT4n

> <r_epik_Ionization_Penalty>
  0.4114

> <r_epik_Ionization_Penalty_Charging>
  0.4113

> <r_epik_Ionization_Penalty_Neutral>
  0.0002

> <r_epik_State_Penalty>
  0.4113

> <r_epik_Charging_Adjusted_Penalty>
0.822612897831462

> <i_epik_Tot_Q>
1

> <i_epik_Tot_abs_Q>
1

> <s_lp_Force_Field>
OPLS3e

> <r_lp_Energy>
46.100431

> <b_lp_Chiralities_Consistent>
1

> <s_lp_Variant>
sdf/inactives_sanitized.sdf:423-2

$$$$
sdf/inactives_sanitized.sdf:424
                    3D
 Schrodinger Suite 2020-1.
 30 30  0  0  1  0            999 V2000
    0.0979    0.1928    0.2145 C   0  0  0  0  0  0
    2.3590    1.1962    0.6908 N   0  0  2  0  0  0
    2.2265    1.5860    1.9743 C   0  0  0  0  0  0
    1.6305    0.0157    0.2139 C   0  0  2  0  0  0
    2.1145    1.8693    3.0907 N   0  0  0  0  0  0
   -0.5412   -0.9947    0.0166 O   0  0  0  0  0  0
   -0.4418    1.2884    0.3847 O   0  0  0  0  0  0
   -1.9691   -1.1704   -0.0399 C   0  0  0  0  0  0
    3.7079    1.0718    0.1566 C   0  0  0  0  0  0
    2.1722   -0.1756   -1.2200 C   0  0  0  0  0  0
    3.3946    0.7332   -1.2984 C   0  0  0  0  0  0
   -2.5881   -0.3797   -1.2193 C   0  0  0  0  0  0
   -2.6387   -0.7799    1.3011 C   0  0  0  0  0  0
   -2.1602   -2.6812   -0.2847 C   0  0  0  0  0  0
    1.8786   -0.8420    0.8415 H   0  0  0  0  0  0
    4.2560    2.0096    0.2575 H   0  0  0  0  0  0
    4.2279    0.2625    0.6745 H   0  0  0  0  0  0
    2.4557   -1.2178   -1.3727 H   0  0  0  0  0  0
    1.4593    0.0799   -2.0075 H   0  0  0  0  0  0
    4.2450    0.2830   -1.8114 H   0  0  0  0  0  0
    3.1470    1.6448   -1.8464 H   0  0  0  0  0  0
   -3.6443   -0.6201   -1.3472 H   0  0  0  0  0  0
   -2.0835   -0.6108   -2.1583 H   0  0  0  0  0  0
   -2.5204    0.6984   -1.0744 H   0  0  0  0  0  0
   -2.5703    0.2891    1.5012 H   0  0  0  0  0  0
   -2.1707   -1.2947    2.1411 H   0  0  0  0  0  0
   -3.6978   -1.0397    1.3069 H   0  0  0  0  0  0
   -3.2158   -2.9471   -0.3533 H   0  0  0  0  0  0
   -1.7245   -3.2751    0.5202 H   0  0  0  0  0  0
   -1.6818   -2.9995   -1.2122 H   0  0  0  0  0  0
  1  4  1  0  0  0
  1  6  1  0  0  0
  1  7  2  0  0  0
  2  4  1  0  0  0
  2  3  1  0  0  0
  2  9  1  0  0  0
  3  5  3  0  0  0
  4 10  1  0  0  0
  4 15  1  0  0  0
  6  8  1  0  0  0
  8 12  1  0  0  0
  8 13  1  0  0  0
  8 14  1  0  0  0
  9 11  1  0  0  0
  9 16  1  0  0  0
  9 17  1  0  0  0
 10 11  1  0  0  0
 10 18  1  0  0  0
 10 19  1  0  0  0
 11 20  1  0  0  0
 11 21  1  0  0  0
 12 22  1  0  0  0
 12 23  1  0  0  0
 12 24  1  0  0  0
 13 25  1  0  0  0
 13 26  1  0  0  0
 13 27  1  0  0  0
 14 28  1  0  0  0
 14 29  1  0  0  0
 14 30  1  0  0  0
M  END
> <chembl_id>
CHEMBL182832

> <chembl_pref_name>
None

> <i_m_ct_stereo_status>
1

> <s_m_source_file>
sdf/inactives_sanitized.sdf

> <i_m_source_file_index>
424

> <i_lp_mmshare_version>
49012

> <i_f3d_flags>
0

> <s_epik_input>
W0NIM11DKFtDSDNdKShbQ0gzXSlPQyg9TylbQ0BIXShOMUMjTilbQ0gyXVtDSDJdW0NIMl0x

> <s_epik_cmdline>
J2VwaWtfcHl0aG9uJywgJy1waHQnLCAnMC41JywgJy1waCcsICc3LjUnLCAnLW50JywgJy1tYScsICcyMDAnLCAnLWltYWUnLCAnPGluZmlsZS5tYWU+JywgJy1vbWFlJywgJzxvdXRmaWxlLm1hZT4n

> <r_lp_tautomer_probability>
1

> <r_epik_Ionization_Penalty>
  0.0000

> <r_epik_Ionization_Penalty_Charging>
  0.0000

> <r_epik_Ionization_Penalty_Neutral>
  0.0000

> <r_epik_State_Penalty>
 -0.0000

> <r_epik_Charging_Adjusted_Penalty>
0

> <i_epik_Tot_Q>
0

> <i_epik_Tot_abs_Q>
0

> <s_epik_Chemistry_Notes>
This compound has an ester and may undergo hydrolysis at high or low pH.

> <s_lp_Force_Field>
OPLS3e

> <r_lp_Energy>
15.021513

> <b_lp_Chiralities_Consistent>
1

> <s_lp_Variant>
sdf/inactives_sanitized.sdf:424-1

$$$$
sdf/inactives_sanitized.sdf:425
                    3D
 Schrodinger Suite 2020-1.
 70 74  0  0  1  0            999 V2000
   -3.3005    1.3257   -0.5881 N   0  0  0  0  0  0
   -4.5154    0.7135   -0.5959 C   0  0  0  0  0  0
   -4.8573   -0.4720   -0.0280 N   0  0  0  0  0  0
   -3.8735   -1.1345    0.6340 C   0  0  0  0  0  0
   -2.3598    0.6352    0.0764 C   0  0  0  0  0  0
   -2.5728   -0.6112    0.7216 C   0  0  0  0  0  0
   -1.3307   -0.9909    1.3086 C   0  0  0  0  0  0
   -0.4060    0.0034    1.0240 C   0  0  0  0  0  0
   -1.0302    0.9862    0.2630 N   0  0  0  0  0  0
    1.0537    0.0881    1.4263 C   0  0  0  0  0  0
    1.8611   -0.1496    0.2760 O   0  0  0  0  0  0
   -5.5773    1.4162   -1.2960 C   0  0  0  0  0  0
   -6.4232    1.9764   -1.8535 N   0  0  0  0  0  0
   -0.4176    2.2232   -0.2267 C   0  0  0  0  0  0
   -0.7370    3.4002    0.7197 C   0  0  0  0  0  0
   -0.1382    4.7570    0.2795 C   0  0  0  0  0  0
    3.2281   -0.2862    0.4233 C   0  0  0  0  0  0
    3.9137   -0.1349    1.6356 C   0  0  0  0  0  0
    5.2941   -0.3083    1.6890 C   0  0  0  0  0  0
    6.0352   -0.6252    0.5390 C   0  0  0  0  0  0
    5.3309   -0.7746   -0.6679 C   0  0  0  0  0  0
    3.9510   -0.6012   -0.7241 C   0  0  0  0  0  0
    7.4197   -0.8306    0.6100 N   0  0  0  0  0  0
    8.2588   -0.0286    1.5243 C   0  0  0  0  0  0
    9.6549   -0.6022    1.8547 C   0  0  0  0  0  0
   10.3228   -0.9719    0.6026 N   0  0  0  0  0  0
    9.5848   -1.9243   -0.2328 C   0  0  0  0  0  0
    8.1852   -1.3474   -0.5420 C   0  0  0  0  0  0
   11.4458   -0.3578    0.1434 C   0  0  0  0  0  0
   12.2305    0.5717    1.0750 C   0  0  0  0  0  0
   11.9237   -0.5776   -0.9710 O   0  0  0  0  0  0
   -0.7793    5.3015   -1.0197 C   0  0  0  0  0  0
   -0.1111    6.6172   -1.4728 C   0  0  0  0  0  0
   -0.1112    7.6969   -0.3633 C   0  0  0  0  0  0
    0.3691    7.1533    1.0041 C   0  0  0  0  0  0
   -0.3161    5.8235    1.3841 C   0  0  0  0  0  0
    0.5977    8.7640   -0.7314 F   0  0  0  0  0  0
   -1.3790    8.0830   -0.2011 F   0  0  0  0  0  0
   -4.1364   -2.0770    1.0910 H   0  0  0  0  0  0
   -1.1208   -1.8827    1.8809 H   0  0  0  0  0  0
    1.2727    1.0726    1.8431 H   0  0  0  0  0  0
    1.2576   -0.6623    2.1925 H   0  0  0  0  0  0
    0.6592    2.0902   -0.3309 H   0  0  0  0  0  0
   -0.7919    2.4072   -1.2339 H   0  0  0  0  0  0
   -1.8183    3.5040    0.8290 H   0  0  0  0  0  0
   -0.3589    3.1532    1.7132 H   0  0  0  0  0  0
    0.9324    4.6278    0.1077 H   0  0  0  0  0  0
    3.3935    0.1071    2.5496 H   0  0  0  0  0  0
    5.7649   -0.2143    2.6547 H   0  0  0  0  0  0
    5.8382   -1.0150   -1.5898 H   0  0  0  0  0  0
    3.4390   -0.7188   -1.6680 H   0  0  0  0  0  0
    8.4233    0.9145    1.0000 H   0  0  0  0  0  0
    7.7562    0.2031    2.4603 H   0  0  0  0  0  0
   10.2137    0.1147    2.4548 H   0  0  0  0  0  0
    9.5397   -1.4955    2.4697 H   0  0  0  0  0  0
   10.1028   -2.1796   -1.1585 H   0  0  0  0  0  0
    9.4717   -2.8550    0.3243 H   0  0  0  0  0  0
    7.6142   -2.1130   -1.0673 H   0  0  0  0  0  0
    8.3298   -0.4934   -1.2059 H   0  0  0  0  0  0
   11.6619    1.4792    1.2789 H   0  0  0  0  0  0
   13.1763    0.8655    0.6182 H   0  0  0  0  0  0
   12.4582    0.0753    2.0188 H   0  0  0  0  0  0
   -0.7042    4.5671   -1.8211 H   0  0  0  0  0  0
   -1.8526    5.4411   -0.8778 H   0  0  0  0  0  0
    0.9164    6.4105   -1.7759 H   0  0  0  0  0  0
   -0.6242    6.9939   -2.3587 H   0  0  0  0  0  0
    1.4494    7.0042    0.9751 H   0  0  0  0  0  0
    0.1800    7.8909    1.7854 H   0  0  0  0  0  0
   -1.3763    5.9772    1.5933 H   0  0  0  0  0  0
    0.0987    5.4561    2.3238 H   0  0  0  0  0  0
  1  2  2  0  0  0
  1  5  1  0  0  0
  2 12  1  0  0  0
  2  3  1  0  0  0
  3  4  2  0  0  0
  4  6  1  0  0  0
  4 39  1  0  0  0
  5  9  1  0  0  0
  5  6  2  0  0  0
  6  7  1  0  0  0
  7  8  2  0  0  0
  7 40  1  0  0  0
  8  9  1  0  0  0
  8 10  1  0  0  0
  9 14  1  0  0  0
 10 11  1  0  0  0
 10 41  1  0  0  0
 10 42  1  0  0  0
 11 17  1  0  0  0
 12 13  3  0  0  0
 14 15  1  0  0  0
 14 43  1  0  0  0
 14 44  1  0  0  0
 15 16  1  0  0  0
 15 45  1  0  0  0
 15 46  1  0  0  0
 16 32  1  0  0  0
 16 36  1  0  0  0
 16 47  1  0  0  0
 17 22  2  0  0  0
 17 18  1  0  0  0
 18 19  2  0  0  0
 18 48  1  0  0  0
 19 20  1  0  0  0
 19 49  1  0  0  0
 20 21  2  0  0  0
 20 23  1  0  0  0
 21 22  1  0  0  0
 21 50  1  0  0  0
 22 51  1  0  0  0
 23 24  1  0  0  0
 23 28  1  0  0  0
 24 25  1  0  0  0
 24 52  1  0  0  0
 24 53  1  0  0  0
 25 26  1  0  0  0
 25 54  1  0  0  0
 25 55  1  0  0  0
 26 27  1  0  0  0
 26 29  1  0  0  0
 27 28  1  0  0  0
 27 56  1  0  0  0
 27 57  1  0  0  0
 28 58  1  0  0  0
 28 59  1  0  0  0
 29 30  1  0  0  0
 29 31  2  0  0  0
 30 60  1  0  0  0
 30 61  1  0  0  0
 30 62  1  0  0  0
 32 33  1  0  0  0
 32 63  1  0  0  0
 32 64  1  0  0  0
 33 34  1  0  0  0
 33 65  1  0  0  0
 33 66  1  0  0  0
 34 35  1  0  0  0
 34 37  1  0  0  0
 34 38  1  0  0  0
 35 36  1  0  0  0
 35 67  1  0  0  0
 35 68  1  0  0  0
 36 69  1  0  0  0
 36 70  1  0  0  0
M  END
> <chembl_id>
CHEMBL461619

> <chembl_pref_name>
None

> <s_m_source_file>
sdf/inactives_sanitized.sdf

> <i_m_source_file_index>
425

> <i_lp_mmshare_version>
49012

> <i_m_ct_stereo_status>
1

> <i_f3d_flags>
0

> <s_epik_input>
RkMxKEYpW0NIMl1bQ0gyXVtDSF0oW0NIMl1bQ0gyXTEpW0NIMl1bQ0gyXW4yYyhbY0hdYyhjMjMpW2NIXW5jKG4zKUMjTilbQ0gyXU9jNFtjSF1bY0hdYyhbY0hdW2NIXTQpTjVbQ0gyXVtDSDJdTihbQ0gyXVtDSDJdNSlDKD1PKVtDSDNd

> <s_epik_cmdline>
J2VwaWtfcHl0aG9uJywgJy1waHQnLCAnMC41JywgJy1waCcsICc3LjUnLCAnLW50JywgJy1tYScsICcyMDAnLCAnLWltYWUnLCAnPGluZmlsZS5tYWU+JywgJy1vbWFlJywgJzxvdXRmaWxlLm1hZT4n

> <r_lp_tautomer_probability>
1

> <r_epik_Ionization_Penalty>
  0.0029

> <r_epik_Ionization_Penalty_Charging>
  0.0000

> <r_epik_Ionization_Penalty_Neutral>
  0.0029

> <r_epik_State_Penalty>
 -0.0000

> <r_epik_Charging_Adjusted_Penalty>
0

> <i_epik_Tot_Q>
0

> <i_epik_Tot_abs_Q>
0

> <s_lp_Force_Field>
OPLS3e

> <r_lp_Energy>
65.52079

> <b_lp_Chiralities_Consistent>
1

> <s_lp_Variant>
sdf/inactives_sanitized.sdf:425-1

$$$$
sdf/inactives_sanitized.sdf:426
                    3D
 Schrodinger Suite 2020-1.
 33 32  0  0  1  0            999 V2000
   -2.0025    1.4720   -0.2394 C   0  0  0  0  0  0
   -2.4831    2.9176   -0.0135 C   0  0  0  0  0  0
   -2.4347    3.2609    1.2744 F   0  0  0  0  0  0
   -1.7471    3.7961   -0.6963 F   0  0  0  0  0  0
   -3.7455    3.0553   -0.4169 F   0  0  0  0  0  0
   -0.6129    1.3024    0.1860 N   0  0  1  0  0  0
   -0.0958   -0.0816    0.0532 C   0  0  1  0  0  0
    1.4574   -0.0727    0.0101 C   0  0  0  0  0  0
   -0.6481   -0.9142    1.2364 C   0  0  0  0  0  0
   -0.3170   -0.6420    2.3918 O   0  0  0  0  0  0
   -1.4865   -1.9141    0.9171 N   0  0  0  0  0  0
   -2.1616   -2.7555    1.8996 C   0  0  0  0  0  0
   -3.1551   -2.0143    2.6969 C   0  0  0  0  0  0
    2.1539   -1.4536   -0.0964 C   0  0  0  0  0  0
    3.6886   -1.3048   -0.0163 C   0  0  0  0  0  0
    1.7096   -2.2466   -1.3443 C   0  0  0  0  0  0
   -3.9358   -1.4324    3.3220 N   0  0  0  0  0  0
   -2.0861    1.2261   -1.2990 H   0  0  0  0  0  0
   -2.6517    0.7864    0.3069 H   0  0  0  0  0  0
   -0.0435    1.9214   -0.3740 H   0  0  0  0  0  0
   -0.4424   -0.5058   -0.8919 H   0  0  0  0  0  0
    1.8374    0.4572    0.8862 H   0  0  0  0  0  0
    1.7752    0.5301   -0.8424 H   0  0  0  0  0  0
   -1.7321   -2.0580   -0.0517 H   0  0  0  0  0  0
   -2.6800   -3.5609    1.3794 H   0  0  0  0  0  0
   -1.4418   -3.2214    2.5750 H   0  0  0  0  0  0
    1.8649   -2.0399    0.7766 H   0  0  0  0  0  0
    4.1877   -1.5775   -0.9461 H   0  0  0  0  0  0
    4.0983   -1.9399    0.7696 H   0  0  0  0  0  0
    3.9891   -0.2816    0.2111 H   0  0  0  0  0  0
    1.2420   -1.6057   -2.0920 H   0  0  0  0  0  0
    0.9843   -3.0139   -1.0715 H   0  0  0  0  0  0
    2.5386   -2.7566   -1.8354 H   0  0  0  0  0  0
  1  6  1  0  0  0
  1  2  1  0  0  0
  1 18  1  0  0  0
  1 19  1  0  0  0
  2  5  1  0  0  0
  2  3  1  0  0  0
  2  4  1  0  0  0
  6  7  1  0  0  0
  6 20  1  0  0  0
  7  9  1  0  0  0
  7  8  1  0  0  0
  7 21  1  0  0  0
  8 14  1  0  0  0
  8 22  1  0  0  0
  8 23  1  0  0  0
  9 10  2  0  0  0
  9 11  1  0  0  0
 11 12  1  0  0  0
 11 24  1  0  0  0
 12 13  1  0  0  0
 12 25  1  0  0  0
 12 26  1  0  0  0
 13 17  3  0  0  0
 14 15  1  0  0  0
 14 16  1  0  0  0
 14 27  1  0  0  0
 15 28  1  0  0  0
 15 29  1  0  0  0
 15 30  1  0  0  0
 16 31  1  0  0  0
 16 32  1  0  0  0
 16 33  1  0  0  0
M  END
> <chembl_id>
CHEMBL206166

> <chembl_pref_name>
None

> <i_m_ct_stereo_status>
1

> <s_m_source_file>
sdf/inactives_sanitized.sdf

> <i_m_source_file_index>
426

> <i_lp_mmshare_version>
49012

> <i_f3d_flags>
0

> <s_epik_input>
RkMoRikoRilbQ0gyXVtOSF1bQ0BASF0oW0NIMl1bQ0hdKFtDSDNdKVtDSDNdKUMoPU8pW05IXVtDSDJdQyNO

> <s_epik_cmdline>
J2VwaWtfcHl0aG9uJywgJy1waHQnLCAnMC41JywgJy1waCcsICc3LjUnLCAnLW50JywgJy1tYScsICcyMDAnLCAnLWltYWUnLCAnPGluZmlsZS5tYWU+JywgJy1vbWFlJywgJzxvdXRmaWxlLm1hZT4n

> <r_epik_Ionization_Penalty>
  0.0197

> <r_epik_Ionization_Penalty_Charging>
  0.0000

> <r_epik_Ionization_Penalty_Neutral>
  0.0197

> <r_epik_State_Penalty>
  0.0158

> <r_epik_Charging_Adjusted_Penalty>
0.0157809616267179

> <i_epik_Tot_Q>
0

> <i_epik_Tot_abs_Q>
0

> <s_lp_Force_Field>
OPLS3e

> <r_lp_Energy>
12.694012

> <b_lp_Chiralities_Consistent>
1

> <s_lp_Variant>
sdf/inactives_sanitized.sdf:426-1

$$$$
sdf/inactives_sanitized.sdf:427
                    3D
 Schrodinger Suite 2020-1.
 67 68  0  0  1  0            999 V2000
   -0.9091   -0.2404   -2.6884 C   0  0  0  0  0  0
   -0.8211   -0.5710   -1.3834 N   0  0  0  0  0  0
   -0.3737    0.7764   -3.1359 O   0  0  0  0  0  0
   -0.0988    0.1819   -0.3568 C   0  0  2  0  0  0
    1.4245    0.1200   -0.5758 C   0  0  0  0  0  0
   -0.5179   -0.3681    1.0285 C   0  0  0  0  0  0
    2.0919    1.2667   -0.3746 N   0  0  0  0  0  0
    1.9547   -0.9428   -0.9004 O   0  0  0  0  0  0
    0.0880    0.3480    2.2608 C   0  0  0  0  0  0
   -0.3017   -0.3788    3.5663 C   0  0  0  0  0  0
   -0.2632    1.8512    2.3030 C   0  0  0  0  0  0
    3.5300    1.4329   -0.5718 C   0  0  2  0  0  0
    4.0368    2.4666    0.3458 C   0  0  0  0  0  0
    3.8928    1.7178   -2.0418 C   0  0  0  0  0  0
    4.4341    3.2791    1.0677 N   0  0  0  0  0  0
    5.3004    1.8761   -2.1613 O   0  0  0  0  0  0
    5.7361    2.1484   -3.4882 C   0  0  0  0  0  0
    7.2530    2.2815   -3.5310 C   0  0  0  0  0  0
    7.8404    3.2238   -4.3806 C   0  0  0  0  0  0
    9.2266    3.3442   -4.4369 C   0  0  0  0  0  0
   10.0236    2.5193   -3.6464 C   0  0  0  0  0  0
    9.4472    1.5737   -2.8011 C   0  0  0  0  0  0
    8.0611    1.4532   -2.7445 C   0  0  0  0  0  0
   -1.6875   -1.1984   -3.6488 C   0  0  0  0  0  0
   -2.6917   -2.0123   -2.9337 N   0  0  0  0  0  0
   -3.8582   -1.5364   -2.2969 C   0  0  0  0  0  0
   -4.7957   -2.4983   -1.9108 C   0  0  0  0  0  0
   -5.9755   -2.1216   -1.2747 C   0  0  0  0  0  0
   -6.2220   -0.7753   -1.0182 C   0  0  0  0  0  0
   -5.2950    0.1944   -1.3918 C   0  0  0  0  0  0
   -4.1162   -0.1835   -2.0287 C   0  0  0  0  0  0
   -7.6852   -0.3056   -0.2321 Cl  0  0  0  0  0  0
   -2.3374   -0.4232   -4.8291 C   0  0  0  0  0  0
   -0.6370   -2.1656   -4.2473 C   0  0  0  0  0  0
   -1.2703   -1.4188   -1.0684 H   0  0  0  0  0  0
   -0.4203    1.2217   -0.4369 H   0  0  0  0  0  0
   -0.2547   -1.4265    1.0732 H   0  0  0  0  0  0
   -1.6058   -0.3321    1.1074 H   0  0  0  0  0  0
    1.5698    2.0990   -0.1413 H   0  0  0  0  0  0
    1.1738    0.2720    2.1932 H   0  0  0  0  0  0
   -0.9546    0.2178    4.2033 H   0  0  0  0  0  0
    0.5853   -0.6242    4.1513 H   0  0  0  0  0  0
   -0.8252   -1.3155    3.3724 H   0  0  0  0  0  0
   -1.0831    2.0993    1.6289 H   0  0  0  0  0  0
    0.5959    2.4546    2.0081 H   0  0  0  0  0  0
   -0.5575    2.1880    3.2969 H   0  0  0  0  0  0
    4.0468    0.5260   -0.2502 H   0  0  0  0  0  0
    3.5553    0.8958   -2.6766 H   0  0  0  0  0  0
    3.3862    2.6241   -2.3797 H   0  0  0  0  0  0
    5.2727    3.0717   -3.8428 H   0  0  0  0  0  0
    5.4417    1.3426   -4.1630 H   0  0  0  0  0  0
    7.2257    3.8636   -4.9972 H   0  0  0  0  0  0
    9.6820    4.0728   -5.0913 H   0  0  0  0  0  0
   11.0989    2.6122   -3.6908 H   0  0  0  0  0  0
   10.0723    0.9363   -2.1934 H   0  0  0  0  0  0
    7.6189    0.7152   -2.0910 H   0  0  0  0  0  0
   -2.7933   -2.9472   -3.3022 H   0  0  0  0  0  0
   -4.6165   -3.5467   -2.1033 H   0  0  0  0  0  0
   -6.6946   -2.8732   -0.9835 H   0  0  0  0  0  0
   -5.4864    1.2382   -1.1902 H   0  0  0  0  0  0
   -3.4204    0.5937   -2.2997 H   0  0  0  0  0  0
   -1.5903    0.0773   -5.4474 H   0  0  0  0  0  0
   -3.0365    0.3446   -4.5001 H   0  0  0  0  0  0
   -2.8897   -1.0961   -5.4868 H   0  0  0  0  0  0
    0.1409   -1.6368   -4.8015 H   0  0  0  0  0  0
   -1.0951   -2.8710   -4.9427 H   0  0  0  0  0  0
   -0.1383   -2.7582   -3.4772 H   0  0  0  0  0  0
  1  3  2  0  0  0
  1 24  1  0  0  0
  1  2  1  0  0  0
  2  4  1  0  0  0
  2 35  1  0  0  0
  4  5  1  0  0  0
  4  6  1  0  0  0
  4 36  1  0  0  0
  5  7  1  0  0  0
  5  8  2  0  0  0
  6  9  1  0  0  0
  6 37  1  0  0  0
  6 38  1  0  0  0
  7 12  1  0  0  0
  7 39  1  0  0  0
  9 10  1  0  0  0
  9 11  1  0  0  0
  9 40  1  0  0  0
 10 41  1  0  0  0
 10 42  1  0  0  0
 10 43  1  0  0  0
 11 44  1  0  0  0
 11 45  1  0  0  0
 11 46  1  0  0  0
 12 13  1  0  0  0
 12 14  1  0  0  0
 12 47  1  0  0  0
 13 15  3  0  0  0
 14 16  1  0  0  0
 14 48  1  0  0  0
 14 49  1  0  0  0
 16 17  1  0  0  0
 17 18  1  0  0  0
 17 50  1  0  0  0
 17 51  1  0  0  0
 18 19  2  0  0  0
 18 23  1  0  0  0
 19 20  1  0  0  0
 19 52  1  0  0  0
 20 21  2  0  0  0
 20 53  1  0  0  0
 21 22  1  0  0  0
 21 54  1  0  0  0
 22 23  2  0  0  0
 22 55  1  0  0  0
 23 56  1  0  0  0
 24 25  1  0  0  0
 24 33  1  0  0  0
 24 34  1  0  0  0
 25 26  1  0  0  0
 25 57  1  0  0  0
 26 27  2  0  0  0
 26 31  1  0  0  0
 27 28  1  0  0  0
 27 58  1  0  0  0
 28 29  2  0  0  0
 28 59  1  0  0  0
 29 30  1  0  0  0
 29 32  1  0  0  0
 30 31  2  0  0  0
 30 60  1  0  0  0
 31 61  1  0  0  0
 33 62  1  0  0  0
 33 63  1  0  0  0
 33 64  1  0  0  0
 34 65  1  0  0  0
 34 66  1  0  0  0
 34 67  1  0  0  0
M  END
> <chembl_id>
CHEMBL207558

> <chembl_pref_name>
None

> <i_m_ct_stereo_status>
1

> <s_m_source_file>
sdf/inactives_sanitized.sdf

> <i_m_source_file_index>
427

> <i_lp_mmshare_version>
49012

> <i_f3d_flags>
0

> <s_epik_input>
W2NIXTFbY0hdYyhDbClbY0hdW2NIXWMxW05IXUMoW0NIM10pKFtDSDNdKUMoPU8pW05IXVtDQEBIXShbQ0gyXVtDSF0oW0NIM10pW0NIM10pQyg9TylbTkhdW0NASF0oQyNOKVtDSDJdT1tDSDJdYzJbY0hdW2NIXVtjSF1bY0hdW2NIXTI=

> <s_epik_cmdline>
J2VwaWtfcHl0aG9uJywgJy1waHQnLCAnMC41JywgJy1waCcsICc3LjUnLCAnLW50JywgJy1tYScsICcyMDAnLCAnLWltYWUnLCAnPGluZmlsZS5tYWU+JywgJy1vbWFlJywgJzxvdXRmaWxlLm1hZT4n

> <r_lp_tautomer_probability>
1

> <r_epik_Ionization_Penalty>
  0.0000

> <r_epik_Ionization_Penalty_Charging>
  0.0000

> <r_epik_Ionization_Penalty_Neutral>
  0.0000

> <r_epik_State_Penalty>
 -0.0000

> <r_epik_Charging_Adjusted_Penalty>
0

> <i_epik_Tot_Q>
0

> <i_epik_Tot_abs_Q>
0

> <s_lp_Force_Field>
OPLS3e

> <r_lp_Energy>
37.807771

> <b_lp_Chiralities_Consistent>
1

> <s_lp_Variant>
sdf/inactives_sanitized.sdf:427-1

$$$$
sdf/inactives_sanitized.sdf:428
                    3D
 Schrodinger Suite 2020-1.
 50 50  0  0  1  0            999 V2000
   -4.0042    1.9453    0.9959 C   0  0  0  0  0  0
   -0.6783    1.2241   -0.0924 C   0  0  0  0  0  0
   -3.4366    2.2022    2.4558 C   0  0  0  0  0  0
   -2.0447    1.0124    0.0280 N   0  0  0  0  0  0
   -3.0018    2.1156   -0.1422 C   0  0  1  0  0  0
   -0.0426    0.0535    0.1341 O   0  0  0  0  0  0
    1.3840   -0.0413    0.2420 C   0  0  0  0  0  0
   -4.1838    1.6120    3.4072 N   0  0  0  0  0  0
   -1.2870    0.4586    4.9216 S   0  0  0  0  0  0
   -3.0050    0.4545    5.2306 C   0  0  0  0  0  0
   -5.1900    1.6418    0.8316 O   0  0  0  0  0  0
   -0.1190    2.2943   -0.3425 O   0  0  0  0  0  0
   -1.0925   -1.1109    5.6222 C   0  0  0  0  0  0
   -2.4065    2.8527    2.6403 O   0  0  0  0  0  0
   -3.3591   -0.7352    5.8678 C   0  0  0  0  0  0
   -2.2942   -1.6142    6.0841 C   0  0  0  0  0  0
   -3.8811    1.6266    4.8371 C   0  0  0  0  0  0
    1.8439   -1.2829   -0.5822 C   0  0  0  0  0  0
    1.8033   -0.0376    1.7475 C   0  0  0  0  0  0
   -3.6543    2.0191   -1.5390 C   0  0  0  0  0  0
    3.3597   -1.5538   -0.4814 C   0  0  0  0  0  0
    1.4385   -1.1631   -2.0674 C   0  0  0  0  0  0
    1.2155   -1.2156    2.5526 C   0  0  0  0  0  0
    1.5024    1.3040    2.4457 C   0  0  0  0  0  0
   -2.3959    0.0679    0.0882 H   0  0  0  0  0  0
   -2.5305    3.0976   -0.0526 H   0  0  0  0  0  0
    1.8545    0.8226   -0.2321 H   0  0  0  0  0  0
   -5.0117    1.1064    3.1264 H   0  0  0  0  0  0
   -0.1189   -1.5769    5.6610 H   0  0  0  0  0  0
   -4.3726   -0.9612    6.1646 H   0  0  0  0  0  0
   -2.3984   -2.5783    6.5598 H   0  0  0  0  0  0
   -4.8303    1.5879    5.3725 H   0  0  0  0  0  0
   -3.4292    2.5777    5.1263 H   0  0  0  0  0  0
    1.3328   -2.1627   -0.1887 H   0  0  0  0  0  0
    2.8881   -0.1328    1.7859 H   0  0  0  0  0  0
   -4.4011    2.8011   -1.6845 H   0  0  0  0  0  0
   -4.1456    1.0576   -1.6987 H   0  0  0  0  0  0
   -2.9077    2.1366   -2.3255 H   0  0  0  0  0  0
    3.9415   -0.6808   -0.7799 H   0  0  0  0  0  0
    3.6572   -2.3836   -1.1239 H   0  0  0  0  0  0
    3.6577   -1.8261    0.5309 H   0  0  0  0  0  0
    1.8934   -0.2886   -2.5346 H   0  0  0  0  0  0
    0.3581   -1.0758   -2.1855 H   0  0  0  0  0  0
    1.7486   -2.0407   -2.6361 H   0  0  0  0  0  0
    0.1251   -1.1925    2.5585 H   0  0  0  0  0  0
    1.5495   -1.1885    3.5904 H   0  0  0  0  0  0
    1.5250   -2.1775    2.1444 H   0  0  0  0  0  0
    0.4310    1.4817    2.5416 H   0  0  0  0  0  0
    1.9296    2.1420    1.8940 H   0  0  0  0  0  0
    1.9246    1.3287    3.4511 H   0  0  0  0  0  0
  1  3  1  0  0  0
  1  5  1  0  0  0
  1 11  2  0  0  0
  2  4  1  0  0  0
  2  6  1  0  0  0
  2 12  2  0  0  0
  3  8  1  0  0  0
  3 14  2  0  0  0
  4  5  1  0  0  0
  4 25  1  0  0  0
  5 20  1  0  0  0
  5 26  1  0  0  0
  6  7  1  0  0  0
  7 18  1  0  0  0
  7 19  1  0  0  0
  7 27  1  0  0  0
  8 17  1  0  0  0
  8 28  1  0  0  0
  9 10  1  0  0  0
  9 13  1  0  0  0
 10 17  1  0  0  0
 10 15  2  0  0  0
 13 16  2  0  0  0
 13 29  1  0  0  0
 15 16  1  0  0  0
 15 30  1  0  0  0
 16 31  1  0  0  0
 17 32  1  0  0  0
 17 33  1  0  0  0
 18 21  1  0  0  0
 18 22  1  0  0  0
 18 34  1  0  0  0
 19 23  1  0  0  0
 19 24  1  0  0  0
 19 35  1  0  0  0
 20 36  1  0  0  0
 20 37  1  0  0  0
 20 38  1  0  0  0
 21 39  1  0  0  0
 21 40  1  0  0  0
 21 41  1  0  0  0
 22 42  1  0  0  0
 22 43  1  0  0  0
 22 44  1  0  0  0
 23 45  1  0  0  0
 23 46  1  0  0  0
 23 47  1  0  0  0
 24 48  1  0  0  0
 24 49  1  0  0  0
 24 50  1  0  0  0
M  END
> <chembl_id>
CHEMBL433890

> <chembl_pref_name>
None

> <i_m_ct_stereo_status>
1

> <s_m_source_file>
sdf/inactives_sanitized.sdf

> <i_m_source_file_index>
428

> <i_lp_mmshare_version>
49012

> <i_f3d_flags>
0

> <s_epik_input>
W0NIM11bQ0hdKFtDSDNdKVtDSF0oW0NIXShbQ0gzXSlbQ0gzXSlPQyg9TylbTkhdW0NAQEhdKFtDSDNdKUMoPU8pQyg9TylbTkhdW0NIMl1jMXNbY0hdW2NIXVtjSF0x

> <s_epik_cmdline>
J2VwaWtfcHl0aG9uJywgJy1waHQnLCAnMC41JywgJy1waCcsICc3LjUnLCAnLW50JywgJy1tYScsICcyMDAnLCAnLWltYWUnLCAnPGluZmlsZS5tYWU+JywgJy1vbWFlJywgJzxvdXRmaWxlLm1hZT4n

> <r_lp_tautomer_probability>
1

> <r_epik_Ionization_Penalty>
  0.0000

> <r_epik_Ionization_Penalty_Charging>
  0.0000

> <r_epik_Ionization_Penalty_Neutral>
  0.0000

> <r_epik_State_Penalty>
 -0.0000

> <r_epik_Charging_Adjusted_Penalty>
0

> <i_epik_Tot_Q>
0

> <i_epik_Tot_abs_Q>
0

> <s_epik_Chemistry_Notes>
This compound has an ester and may undergo hydrolysis at high or low pH.

> <s_lp_Force_Field>
OPLS3e

> <r_lp_Energy>
18.205349

> <b_lp_Chiralities_Consistent>
1

> <s_lp_Variant>
sdf/inactives_sanitized.sdf:428-1

$$$$
sdf/inactives_sanitized.sdf:429
                    3D
 Schrodinger Suite 2020-1.
 59 62  0  0  1  0            999 V2000
   -9.3513   -1.0307   -1.3350 C   0  0  0  0  0  0
   -8.8615   -0.0967    0.2281 S   0  0  0  0  0  0
   -9.3033    1.2962    0.0964 O   0  0  0  0  0  0
   -9.2643   -0.8932    1.3926 O   0  0  0  0  0  0
   -7.0714   -0.1033    0.1650 C   0  0  0  0  0  0
   -6.3587   -1.1479    0.7524 C   0  0  0  0  0  0
   -4.9677   -1.1524    0.6997 C   0  0  0  0  0  0
   -4.2684   -0.1180    0.0621 C   0  0  0  0  0  0
   -5.0019    0.9230   -0.5247 C   0  0  0  0  0  0
   -6.3932    0.9321   -0.4772 C   0  0  0  0  0  0
   -2.7747   -0.1254    0.0089 C   0  0  0  0  0  0
   -2.0432    1.0703    0.0643 C   0  0  0  0  0  0
   -0.6496    1.0648    0.0215 C   0  0  0  0  0  0
    0.0479   -0.1411   -0.0782 C   0  0  0  0  0  0
    1.5738   -0.1439   -0.0883 C   0  0  0  0  0  0
    2.2057   -0.6919    1.2113 C   0  0  2  0  0  0
    1.7381    0.0190    2.4052 N   0  0  0  0  0  0
    0.8627   -0.4594    3.3094 C   0  0  0  0  0  0
    0.4016   -1.6016    3.2378 O   0  0  0  0  0  0
    0.4452    0.5260    4.4351 C   0  0  2  0  0  0
   -0.3695    1.7355    3.8927 C   0  0  0  0  0  0
   -0.8441    2.6357    5.0695 C   0  0  0  0  0  0
   -0.4111    2.0522    6.4454 C   0  0  2  0  0  0
    1.1385    1.9124    6.4625 C   0  0  0  0  0  0
    1.6436    1.0049    5.3039 C   0  0  0  0  0  0
   -1.0111    0.6210    6.5554 C   0  0  0  0  0  0
   -0.5046   -0.2571    5.3819 N   0  3  0  0  0  0
    3.6764   -0.6615    1.1617 C   0  0  0  0  0  0
    4.8326   -0.6367    1.1233 N   0  0  0  0  0  0
   -0.6668   -1.3409   -0.1413 C   0  0  0  0  0  0
   -0.0151   -2.5225   -0.2394 F   0  0  0  0  0  0
   -2.0608   -1.3286   -0.0966 C   0  0  0  0  0  0
  -10.4385   -1.0839   -1.3860 H   0  0  0  0  0  0
   -8.9315   -2.0353   -1.2949 H   0  0  0  0  0  0
   -8.9638   -0.4982   -2.2030 H   0  0  0  0  0  0
   -6.8752   -1.9555    1.2504 H   0  0  0  0  0  0
   -4.4363   -1.9666    1.1703 H   0  0  0  0  0  0
   -4.4981    1.7310   -1.0348 H   0  0  0  0  0  0
   -6.9369    1.7419   -0.9415 H   0  0  0  0  0  0
   -2.5514    2.0192    0.1550 H   0  0  0  0  0  0
   -0.1149    2.0020    0.0768 H   0  0  0  0  0  0
    1.9183   -0.7256   -0.9450 H   0  0  0  0  0  0
    1.9376    0.8697   -0.2669 H   0  0  0  0  0  0
    1.9709   -1.7557    1.2829 H   0  0  0  0  0  0
    2.0014    0.9917    2.4677 H   0  0  0  0  0  0
    0.2365    2.3271    3.2040 H   0  0  0  0  0  0
   -1.2317    1.3945    3.3154 H   0  0  0  0  0  0
   -0.4390    3.6424    4.9537 H   0  0  0  0  0  0
   -1.9287    2.7517    5.0378 H   0  0  0  0  0  0
   -0.7565    2.6841    7.2650 H   0  0  0  0  0  0
    1.5977    2.8996    6.3883 H   0  0  0  0  0  0
    1.4660    1.5092    7.4223 H   0  0  0  0  0  0
    2.3609    1.5589    4.6956 H   0  0  0  0  0  0
    2.1908    0.1524    5.7118 H   0  0  0  0  0  0
   -0.7086    0.1026    7.4661 H   0  0  0  0  0  0
   -2.0996    0.6102    6.4850 H   0  0  0  0  0  0
   -0.0164   -1.0598    5.7536 H   0  0  0  0  0  0
   -2.5851   -2.2713   -0.1540 H   0  0  0  0  0  0
   -1.2963   -0.5961    4.8538 H   0  0  0  0  0  0
  1  2  1  0  0  0
  1 33  1  0  0  0
  1 34  1  0  0  0
  1 35  1  0  0  0
  2  3  2  0  0  0
  2  4  2  0  0  0
  2  5  1  0  0  0
  5  6  2  0  0  0
  5 10  1  0  0  0
  6  7  1  0  0  0
  6 36  1  0  0  0
  7  8  2  0  0  0
  7 37  1  0  0  0
  8  9  1  0  0  0
  8 11  1  0  0  0
  9 10  2  0  0  0
  9 38  1  0  0  0
 10 39  1  0  0  0
 11 12  2  0  0  0
 11 32  1  0  0  0
 12 13  1  0  0  0
 12 40  1  0  0  0
 13 14  2  0  0  0
 13 41  1  0  0  0
 14 15  1  0  0  0
 14 30  1  0  0  0
 15 16  1  0  0  0
 15 42  1  0  0  0
 15 43  1  0  0  0
 16 17  1  0  0  0
 16 28  1  0  0  0
 16 44  1  0  0  0
 17 18  1  0  0  0
 17 45  1  0  0  0
 18 19  2  0  0  0
 18 20  1  0  0  0
 20 21  1  0  0  0
 20 25  1  0  0  0
 20 27  1  0  0  0
 21 22  1  0  0  0
 21 46  1  0  0  0
 21 47  1  0  0  0
 22 23  1  0  0  0
 22 48  1  0  0  0
 22 49  1  0  0  0
 23 24  1  0  0  0
 23 26  1  0  0  0
 23 50  1  0  0  0
 24 25  1  0  0  0
 24 51  1  0  0  0
 24 52  1  0  0  0
 25 53  1  0  0  0
 25 54  1  0  0  0
 26 27  1  0  0  0
 26 55  1  0  0  0
 26 56  1  0  0  0
 27 57  1  0  0  0
 27 59  1  0  0  0
 28 29  3  0  0  0
 30 31  1  0  0  0
 30 32  2  0  0  0
 32 58  1  0  0  0
M  CHG  1  27   1
M  END
> <chembl_id>
CHEMBL3702585

> <chembl_pref_name>
None

> <i_m_ct_stereo_status>
1

> <s_m_source_file>
sdf/inactives_sanitized.sdf

> <i_m_source_file_index>
429

> <i_lp_mmshare_version>
49012

> <i_f3d_flags>
0

> <s_epik_input>
W0NIM11TKD1PKSg9TyljMVtjSF1bY0hdYyhbY0hdW2NIXTEpLWMyW2NIXVtjSF1jKGMoRilbY0hdMilbQ0gyXVtDQEBIXShDI04pW05IXUMoPU8pW0NAXTM0W0NIMl1bQ0gyXVtDQEhdKFtDSDJdW0NIMl0zKVtDSDJdW05IXTQ=

> <s_epik_cmdline>
J2VwaWtfcHl0aG9uJywgJy1waHQnLCAnMC41JywgJy1waCcsICc3LjUnLCAnLW50JywgJy1tYScsICcyMDAnLCAnLWltYWUnLCAnPGluZmlsZS5tYWU+JywgJy1vbWFlJywgJzxvdXRmaWxlLm1hZT4n

> <r_epik_Ionization_Penalty>
  0.2492

> <r_epik_Ionization_Penalty_Charging>
  0.2491

> <r_epik_Ionization_Penalty_Neutral>
  0.0001

> <r_epik_State_Penalty>
  0.2404

> <r_epik_Charging_Adjusted_Penalty>
0.489493738808436

> <i_epik_Tot_Q>
1

> <i_epik_Tot_abs_Q>
1

> <s_lp_Force_Field>
OPLS3e

> <r_lp_Energy>
47.499327

> <b_lp_Chiralities_Consistent>
1

> <s_lp_Variant>
sdf/inactives_sanitized.sdf:429-1

$$$$
sdf/inactives_sanitized.sdf:429
                    3D
 Schrodinger Suite 2020-1.
 58 61  0  0  1  0            999 V2000
   -9.7094    0.8554   -1.2693 C   0  0  0  0  0  0
   -9.2255    0.1229    0.3994 S   0  0  0  0  0  0
   -9.6364    1.0557    1.4547 O   0  0  0  0  0  0
   -9.6627   -1.2772    0.4382 O   0  0  0  0  0  0
   -7.4355    0.1236    0.3409 C   0  0  0  0  0  0
   -6.7613   -0.9460   -0.2469 C   0  0  0  0  0  0
   -5.3702   -0.9437   -0.2977 C   0  0  0  0  0  0
   -4.6320    0.1232    0.2347 C   0  0  0  0  0  0
   -5.3279    1.1905    0.8204 C   0  0  0  0  0  0
   -6.7188    1.1945    0.8738 C   0  0  0  0  0  0
   -3.1375    0.1240    0.1780 C   0  0  0  0  0  0
   -2.4199    1.3214    0.0373 C   0  0  0  0  0  0
   -1.0266    1.3257   -0.0158 C   0  0  0  0  0  0
   -0.3144    0.1279    0.0676 C   0  0  0  0  0  0
    1.2096    0.1455   -0.0082 C   0  0  0  0  0  0
    1.7586    0.0317   -1.4460 C   0  0  2  0  0  0
    1.3474   -1.2177   -2.0905 N   0  0  0  0  0  0
    1.5838   -1.5648   -3.3715 C   0  0  0  0  0  0
    2.1942   -0.8181   -4.1391 O   0  0  0  0  0  0
    1.0689   -2.9393   -3.8975 C   0  0  2  0  0  0
    2.2866   -3.8533   -4.2477 C   0  0  0  0  0  0
    1.7955   -5.2283   -4.7820 C   0  0  0  0  0  0
    0.2440   -5.2834   -4.7868 C   0  0  2  0  0  0
   -0.3043   -4.1404   -5.6870 C   0  0  0  0  0  0
    0.1863   -2.7561   -5.1723 C   0  0  0  0  0  0
   -0.2101   -4.9667   -3.3301 C   0  0  0  0  0  0
    0.2425   -3.6339   -2.8806 N   0  0  2  0  0  0
    3.2234    0.2105   -1.4739 C   0  0  0  0  0  0
    4.3719    0.3510   -1.4948 N   0  0  0  0  0  0
   -1.0144   -1.0750    0.2069 C   0  0  0  0  0  0
   -0.3500   -2.2514    0.2863 F   0  0  0  0  0  0
   -2.4081   -1.0719    0.2621 C   0  0  0  0  0  0
  -10.7963    0.9020   -1.3306 H   0  0  0  0  0  0
   -9.3194    0.2185   -2.0628 H   0  0  0  0  0  0
   -9.2888    1.8571   -1.3526 H   0  0  0  0  0  0
   -7.3092   -1.7767   -0.6673 H   0  0  0  0  0  0
   -4.8710   -1.7785   -0.7673 H   0  0  0  0  0  0
   -4.7946    2.0255    1.2506 H   0  0  0  0  0  0
   -7.2312    2.0287    1.3305 H   0  0  0  0  0  0
   -2.9389    2.2652   -0.0447 H   0  0  0  0  0  0
   -0.5028    2.2638   -0.1306 H   0  0  0  0  0  0
    1.5720    1.0698    0.4452 H   0  0  0  0  0  0
    1.6138   -0.6514    0.6188 H   0  0  0  0  0  0
    1.3415    0.8571   -2.0266 H   0  0  0  0  0  0
    0.8257   -1.8625   -1.5143 H   0  0  0  0  0  0
    2.9227   -3.3802   -4.9986 H   0  0  0  0  0  0
    2.9198   -4.0056   -3.3710 H   0  0  0  0  0  0
    2.1776   -5.3978   -5.7899 H   0  0  0  0  0  0
    2.1990   -6.0365   -4.1698 H   0  0  0  0  0  0
   -0.1190   -6.2586   -5.1131 H   0  0  0  0  0  0
    0.0157   -4.2924   -6.7190 H   0  0  0  0  0  0
   -1.3947   -4.1696   -5.7055 H   0  0  0  0  0  0
    0.7480   -2.2550   -5.9631 H   0  0  0  0  0  0
   -0.6717   -2.1149   -4.9605 H   0  0  0  0  0  0
   -1.2975   -5.0064   -3.2575 H   0  0  0  0  0  0
    0.1747   -5.7182   -2.6398 H   0  0  0  0  0  0
   -0.5849   -3.0788   -2.7148 H   0  0  0  0  0  0
   -2.9190   -2.0161    0.3815 H   0  0  0  0  0  0
  1  2  1  0  0  0
  1 33  1  0  0  0
  1 34  1  0  0  0
  1 35  1  0  0  0
  2  3  2  0  0  0
  2  4  2  0  0  0
  2  5  1  0  0  0
  5  6  2  0  0  0
  5 10  1  0  0  0
  6  7  1  0  0  0
  6 36  1  0  0  0
  7  8  2  0  0  0
  7 37  1  0  0  0
  8  9  1  0  0  0
  8 11  1  0  0  0
  9 10  2  0  0  0
  9 38  1  0  0  0
 10 39  1  0  0  0
 11 12  2  0  0  0
 11 32  1  0  0  0
 12 13  1  0  0  0
 12 40  1  0  0  0
 13 14  2  0  0  0
 13 41  1  0  0  0
 14 15  1  0  0  0
 14 30  1  0  0  0
 15 16  1  0  0  0
 15 42  1  0  0  0
 15 43  1  0  0  0
 16 17  1  0  0  0
 16 28  1  0  0  0
 16 44  1  0  0  0
 17 18  1  0  0  0
 17 45  1  0  0  0
 18 19  2  0  0  0
 18 20  1  0  0  0
 20 21  1  0  0  0
 20 25  1  0  0  0
 20 27  1  0  0  0
 21 22  1  0  0  0
 21 46  1  0  0  0
 21 47  1  0  0  0
 22 23  1  0  0  0
 22 48  1  0  0  0
 22 49  1  0  0  0
 23 24  1  0  0  0
 23 26  1  0  0  0
 23 50  1  0  0  0
 24 25  1  0  0  0
 24 51  1  0  0  0
 24 52  1  0  0  0
 25 53  1  0  0  0
 25 54  1  0  0  0
 26 27  1  0  0  0
 26 55  1  0  0  0
 26 56  1  0  0  0
 27 57  1  0  0  0
 28 29  3  0  0  0
 30 31  1  0  0  0
 30 32  2  0  0  0
 32 58  1  0  0  0
M  END
> <chembl_id>
CHEMBL3702585

> <chembl_pref_name>
None

> <i_m_ct_stereo_status>
1

> <s_m_source_file>
sdf/inactives_sanitized.sdf

> <i_m_source_file_index>
429

> <i_lp_mmshare_version>
49012

> <i_f3d_flags>
0

> <s_epik_input>
W0NIM11TKD1PKSg9TyljMVtjSF1bY0hdYyhbY0hdW2NIXTEpLWMyW2NIXVtjSF1jKGMoRilbY0hdMilbQ0gyXVtDQEBIXShDI04pW05IXUMoPU8pW0NAXTM0W0NIMl1bQ0gyXVtDQEhdKFtDSDJdW0NIMl0zKVtDSDJdW05IXTQ=

> <s_epik_cmdline>
J2VwaWtfcHl0aG9uJywgJy1waHQnLCAnMC41JywgJy1waCcsICc3LjUnLCAnLW50JywgJy1tYScsICcyMDAnLCAnLWltYWUnLCAnPGluZmlsZS5tYWU+JywgJy1vbWFlJywgJzxvdXRmaWxlLm1hZT4n

> <r_epik_Ionization_Penalty>
  0.6336

> <r_epik_Ionization_Penalty_Charging>
  0.0000

> <r_epik_Ionization_Penalty_Neutral>
  0.6336

> <r_epik_State_Penalty>
  0.6506

> <r_epik_Charging_Adjusted_Penalty>
0.650608926039391

> <i_epik_Tot_Q>
0

> <i_epik_Tot_abs_Q>
0

> <s_lp_Force_Field>
OPLS3e

> <r_lp_Energy>
42.999806

> <b_lp_Chiralities_Consistent>
1

> <s_lp_Variant>
sdf/inactives_sanitized.sdf:429-2

$$$$
sdf/inactives_sanitized.sdf:430
                    3D
 Schrodinger Suite 2020-1.
 66 68  0  0  1  0            999 V2000
   -0.5701    1.8571    1.1172 C   0  0  0  0  0  0
   -1.2916    3.0569    1.1274 C   0  0  0  0  0  0
   -2.2815    3.2600    0.1589 C   0  0  0  0  0  0
   -2.5408    2.2837   -0.8019 C   0  0  0  0  0  0
   -1.8080    1.0978   -0.8093 C   0  0  0  0  0  0
   -0.8091    0.8794    0.1442 C   0  0  0  0  0  0
   -0.0003   -0.4184    0.1216 C   0  0  0  0  0  0
    1.5403   -0.2061    0.1685 C   0  0  2  0  0  0
    2.0274    0.6023   -0.9554 N   0  0  0  0  0  0
    2.2706   -1.5631    0.1694 C   0  0  0  0  0  0
    2.2865   -2.2531   -0.8518 O   0  0  0  0  0  0
    2.8303   -1.9403    1.3314 N   0  0  0  0  0  0
    3.4950   -3.2229    1.5392 C   0  0  0  0  0  0
    2.5695   -4.3674    1.4604 C   0  0  0  0  0  0
    1.8428   -5.2659    1.3993 N   0  0  0  0  0  0
    2.4273    1.8860   -0.8930 C   0  0  0  0  0  0
    2.4320    2.5585    0.1393 O   0  0  0  0  0  0
    2.8587    2.4261   -2.1630 C   0  0  0  0  0  0
   -0.9965    4.1029    2.1518 C   0  0  0  0  0  0
   -0.0900    4.0798    3.1018 N   0  0  0  0  0  0
   -0.2028    5.2894    3.7803 N   0  0  0  0  0  0
   -1.1660    5.9457    3.1845 C   0  0  0  0  0  0
   -1.7143    5.2569    2.1525 O   0  0  0  0  0  0
    2.6021    1.9799   -3.4560 C   0  0  0  0  0  0
    3.1804    2.8987   -4.3467 C   0  0  0  0  0  0
    3.7302    3.8854   -3.6680 N   0  0  0  0  0  0
    3.5357    3.6122   -2.3695 N   0  0  0  0  0  0
    4.0230    4.5760   -1.3871 C   0  0  0  0  0  0
   -1.7166    7.3120    3.5256 C   0  0  0  0  0  0
   -3.1778    7.2394    3.9966 C   0  0  0  0  0  0
   -3.6862    8.6411    4.3475 N   0  3  0  0  0  0
    3.2263    2.8846   -5.8823 C   0  0  0  0  0  0
    2.5048    1.6358   -6.4449 C   0  0  0  0  0  0
    4.6971    2.8585   -6.3624 C   0  0  0  0  0  0
    2.5296    4.1471   -6.4435 C   0  0  0  0  0  0
    0.1911    1.6893    1.8649 H   0  0  0  0  0  0
   -2.8549    4.1754    0.1420 H   0  0  0  0  0  0
   -3.3072    2.4483   -1.5448 H   0  0  0  0  0  0
   -2.0154    0.3535   -1.5644 H   0  0  0  0  0  0
   -0.3316   -1.0301    0.9629 H   0  0  0  0  0  0
   -0.2591   -0.9819   -0.7777 H   0  0  0  0  0  0
    1.7824    0.2972    1.1067 H   0  0  0  0  0  0
    2.0707    0.1232   -1.8430 H   0  0  0  0  0  0
    2.7414   -1.3385    2.1377 H   0  0  0  0  0  0
    4.2983   -3.3662    0.8144 H   0  0  0  0  0  0
    3.9523   -3.2282    2.5286 H   0  0  0  0  0  0
    2.0600    1.0857   -3.7268 H   0  0  0  0  0  0
    4.5816    4.0530   -0.6105 H   0  0  0  0  0  0
    3.1732    5.0918   -0.9387 H   0  0  0  0  0  0
    4.6819    5.3118   -1.8523 H   0  0  0  0  0  0
   -1.1098    7.7822    4.3016 H   0  0  0  0  0  0
   -1.6384    7.9727    2.6610 H   0  0  0  0  0  0
   -3.8573    6.8673    3.2284 H   0  0  0  0  0  0
   -3.3029    6.6489    4.9052 H   0  0  0  0  0  0
   -4.6433    8.5931    4.6674 H   0  0  0  0  0  0
   -3.6449    9.2413    3.5361 H   0  0  0  0  0  0
    2.5294    1.6123   -7.5354 H   0  0  0  0  0  0
    1.4565    1.6089   -6.1439 H   0  0  0  0  0  0
    2.9650    0.7123   -6.0903 H   0  0  0  0  0  0
    5.2285    1.9910   -5.9679 H   0  0  0  0  0  0
    5.2451    3.7432   -6.0345 H   0  0  0  0  0  0
    4.7671    2.8186   -7.4504 H   0  0  0  0  0  0
    2.5233    4.1538   -7.5345 H   0  0  0  0  0  0
    3.0259    5.0621   -6.1166 H   0  0  0  0  0  0
    1.4930    4.2106   -6.1092 H   0  0  0  0  0  0
   -3.1196    9.0445    5.0800 H   0  0  0  0  0  0
  1  6  2  0  0  0
  1  2  1  0  0  0
  1 36  1  0  0  0
  2 19  1  0  0  0
  2  3  2  0  0  0
  3  4  1  0  0  0
  3 37  1  0  0  0
  4  5  2  0  0  0
  4 38  1  0  0  0
  5  6  1  0  0  0
  5 39  1  0  0  0
  6  7  1  0  0  0
  7  8  1  0  0  0
  7 40  1  0  0  0
  7 41  1  0  0  0
  8  9  1  0  0  0
  8 10  1  0  0  0
  8 42  1  0  0  0
  9 16  1  0  0  0
  9 43  1  0  0  0
 10 11  2  0  0  0
 10 12  1  0  0  0
 12 13  1  0  0  0
 12 44  1  0  0  0
 13 14  1  0  0  0
 13 45  1  0  0  0
 13 46  1  0  0  0
 14 15  3  0  0  0
 16 18  1  0  0  0
 16 17  2  0  0  0
 18 24  2  0  0  0
 18 27  1  0  0  0
 19 20  2  0  0  0
 19 23  1  0  0  0
 20 21  1  0  0  0
 21 22  2  0  0  0
 22 23  1  0  0  0
 22 29  1  0  0  0
 24 25  1  0  0  0
 24 47  1  0  0  0
 25 26  2  0  0  0
 25 32  1  0  0  0
 26 27  1  0  0  0
 27 28  1  0  0  0
 28 48  1  0  0  0
 28 49  1  0  0  0
 28 50  1  0  0  0
 29 30  1  0  0  0
 29 51  1  0  0  0
 29 52  1  0  0  0
 30 31  1  0  0  0
 30 53  1  0  0  0
 30 54  1  0  0  0
 31 55  1  0  0  0
 31 56  1  0  0  0
 31 66  1  0  0  0
 32 33  1  0  0  0
 32 34  1  0  0  0
 32 35  1  0  0  0
 33 57  1  0  0  0
 33 58  1  0  0  0
 33 59  1  0  0  0
 34 60  1  0  0  0
 34 61  1  0  0  0
 34 62  1  0  0  0
 35 63  1  0  0  0
 35 64  1  0  0  0
 35 65  1  0  0  0
M  CHG  1  31   1
M  END
> <chembl_id>
CHEMBL555122

> <chembl_pref_name>
None

> <i_m_ct_stereo_status>
1

> <s_m_source_file>
sdf/inactives_sanitized.sdf

> <i_m_source_file_index>
430

> <i_lp_mmshare_version>
49012

> <i_f3d_flags>
0

> <s_epik_input>
W05IMl1bQ0gyXVtDSDJdYyhvMSlubmMxLWMyW2NIXWMoW2NIXVtjSF1bY0hdMilbQ0gyXVtDQEBIXShDKD1PKVtOSF1bQ0gyXUMjTilbTkhdQyg9TyljM1tjSF1jKEMoW0NIM10pKFtDSDNdKVtDSDNdKW5uM1tDSDNd

> <s_epik_cmdline>
J2VwaWtfcHl0aG9uJywgJy1waHQnLCAnMC41JywgJy1waCcsICc3LjUnLCAnLW50JywgJy1tYScsICcyMDAnLCAnLWltYWUnLCAnPGluZmlsZS5tYWU+JywgJy1vbWFlJywgJzxvdXRmaWxlLm1hZT4n

> <r_lp_tautomer_probability>
1

> <r_epik_Ionization_Penalty>
  0.0041

> <r_epik_Ionization_Penalty_Charging>
  0.0041

> <r_epik_Ionization_Penalty_Neutral>
  0.0000

> <r_epik_State_Penalty>
 -0.0000

> <r_epik_Charging_Adjusted_Penalty>
0.00405566355259497

> <i_epik_Tot_Q>
1

> <i_epik_Tot_abs_Q>
1

> <s_lp_Force_Field>
OPLS3e

> <r_lp_Energy>
24.347263

> <b_lp_Chiralities_Consistent>
1

> <s_lp_Variant>
sdf/inactives_sanitized.sdf:430-1

$$$$
sdf/inactives_sanitized.sdf:431
                    3D
 Schrodinger Suite 2020-1.
 43 44  0  0  1  0            999 V2000
    0.7153   -2.7485    2.5136 C   0  0  0  0  0  0
    1.2168   -4.0508    2.5471 C   0  0  0  0  0  0
    1.0051   -4.9075    1.4666 C   0  0  0  0  0  0
    0.2901   -4.4630    0.3552 C   0  0  0  0  0  0
   -0.2104   -3.1615    0.3217 C   0  0  0  0  0  0
    0.0055   -2.2912    1.3975 C   0  0  0  0  0  0
   -0.5336   -0.8610    1.3676 C   0  0  0  0  0  0
   -0.0912   -0.0501    0.1175 C   0  0  2  0  0  0
    1.3680    0.0557    0.0128 N   0  0  0  0  0  0
   -0.6897    1.3695    0.1486 C   0  0  0  0  0  0
   -0.3325    2.1664    1.0186 O   0  0  0  0  0  0
   -1.6191    1.6496   -0.7802 N   0  0  0  0  0  0
   -2.2586    2.9535   -0.9262 C   0  0  0  0  0  0
   -1.3157    4.0136   -1.3264 C   0  0  0  0  0  0
   -0.5756    4.8456   -1.6410 N   0  0  0  0  0  0
    2.1501   -0.5940   -0.8698 C   0  0  0  0  0  0
    1.7228   -1.3768   -1.7191 O   0  0  0  0  0  0
    3.5623   -0.3120   -0.7365 C   0  0  0  0  0  0
    2.1000   -4.6004    3.9242 Cl  0  0  0  0  0  0
    4.6233   -0.7160   -1.5864 C   0  0  0  0  0  0
    5.7931   -0.3280   -1.1187 N   0  0  0  0  0  0
    5.5337    0.3252    0.0171 N   0  0  0  0  0  0
    4.2003    0.3434    0.3135 C   0  0  0  0  0  0
    6.6320    0.8518    0.8073 C   0  0  0  0  0  0
    4.5949   -1.4928   -2.8888 C   0  0  0  0  0  0
    0.8864   -2.0924    3.3546 H   0  0  0  0  0  0
    1.3922   -5.9157    1.4883 H   0  0  0  0  0  0
    0.1241   -5.1269   -0.4802 H   0  0  0  0  0  0
   -0.7634   -2.8337   -0.5460 H   0  0  0  0  0  0
   -1.6220   -0.9157    1.4276 H   0  0  0  0  0  0
   -0.2137   -0.3404    2.2730 H   0  0  0  0  0  0
   -0.4806   -0.5571   -0.7679 H   0  0  0  0  0  0
    1.7996    0.6945    0.6641 H   0  0  0  0  0  0
   -1.8460    0.9509   -1.4731 H   0  0  0  0  0  0
   -3.0311    2.8851   -1.6923 H   0  0  0  0  0  0
   -2.7521    3.2501    0.0009 H   0  0  0  0  0  0
    3.8357    0.8062    1.2194 H   0  0  0  0  0  0
    6.2485    1.5320    1.5688 H   0  0  0  0  0  0
    7.3247    1.3956    0.1631 H   0  0  0  0  0  0
    7.1555    0.0274    1.2926 H   0  0  0  0  0  0
    3.6505   -1.3862   -3.4210 H   0  0  0  0  0  0
    4.7491   -2.5583   -2.7186 H   0  0  0  0  0  0
    5.3712   -1.1642   -3.5810 H   0  0  0  0  0  0
  1  6  2  0  0  0
  1  2  1  0  0  0
  1 26  1  0  0  0
  2 19  1  0  0  0
  2  3  2  0  0  0
  3  4  1  0  0  0
  3 27  1  0  0  0
  4  5  2  0  0  0
  4 28  1  0  0  0
  5  6  1  0  0  0
  5 29  1  0  0  0
  6  7  1  0  0  0
  7  8  1  0  0  0
  7 30  1  0  0  0
  7 31  1  0  0  0
  8  9  1  0  0  0
  8 10  1  0  0  0
  8 32  1  0  0  0
  9 16  1  0  0  0
  9 33  1  0  0  0
 10 11  2  0  0  0
 10 12  1  0  0  0
 12 13  1  0  0  0
 12 34  1  0  0  0
 13 14  1  0  0  0
 13 35  1  0  0  0
 13 36  1  0  0  0
 14 15  3  0  0  0
 16 17  2  0  0  0
 16 18  1  0  0  0
 18 20  1  0  0  0
 18 23  2  0  0  0
 20 21  2  0  0  0
 20 25  1  0  0  0
 21 22  1  0  0  0
 22 23  1  0  0  0
 22 24  1  0  0  0
 23 37  1  0  0  0
 24 38  1  0  0  0
 24 39  1  0  0  0
 24 40  1  0  0  0
 25 41  1  0  0  0
 25 42  1  0  0  0
 25 43  1  0  0  0
M  END
> <chembl_id>
CHEMBL556421

> <chembl_pref_name>
None

> <i_m_ct_stereo_status>
1

> <s_m_source_file>
sdf/inactives_sanitized.sdf

> <i_m_source_file_index>
431

> <i_lp_mmshare_version>
49012

> <i_f3d_flags>
0

> <s_epik_input>
W2NIXTFbY0hdW2NIXWMoW2NIXWMxQ2wpW0NIMl1bQ0BASF0oQyg9TylbTkhdW0NIMl1DI04pW05IXUMoPU8pYzJjKFtDSDNdKW5uKFtjSF0yKVtDSDNd

> <s_epik_cmdline>
J2VwaWtfcHl0aG9uJywgJy1waHQnLCAnMC41JywgJy1waCcsICc3LjUnLCAnLW50JywgJy1tYScsICcyMDAnLCAnLWltYWUnLCAnPGluZmlsZS5tYWU+JywgJy1vbWFlJywgJzxvdXRmaWxlLm1hZT4n

> <r_lp_tautomer_probability>
1

> <r_epik_Ionization_Penalty>
  0.0000

> <r_epik_Ionization_Penalty_Charging>
  0.0000

> <r_epik_Ionization_Penalty_Neutral>
  0.0000

> <r_epik_State_Penalty>
 -0.0000

> <r_epik_Charging_Adjusted_Penalty>
0

> <i_epik_Tot_Q>
0

> <i_epik_Tot_abs_Q>
0

> <s_lp_Force_Field>
OPLS3e

> <r_lp_Energy>
14.255143

> <b_lp_Chiralities_Consistent>
1

> <s_lp_Variant>
sdf/inactives_sanitized.sdf:431-1

$$$$
sdf/inactives_sanitized.sdf:432
                    3D
 Schrodinger Suite 2020-1.
 49 51  0  0  1  0            999 V2000
   -1.8274    1.5338   -0.0638 C   0  0  0  0  0  0
   -0.4274    1.5035   -0.1771 C   0  0  0  0  0  0
    0.2723    2.7173   -0.2494 C   0  0  0  0  0  0
   -0.4044    3.9330   -0.2049 C   0  0  0  0  0  0
   -1.8001    3.9862   -0.0845 C   0  0  0  0  0  0
   -2.4914    2.7679   -0.0190 C   0  0  0  0  0  0
   -2.6242    0.2263    0.0153 C   0  0  0  0  0  0
   -2.2235   -0.4812    1.0728 F   0  0  0  0  0  0
   -3.9386    0.4269    0.1309 F   0  0  0  0  0  0
   -2.4143   -0.4968   -1.0855 F   0  0  0  0  0  0
   -2.5314    5.2942   -0.0292 C   0  0  0  0  0  0
   -3.7880    5.4311    0.5838 C   0  0  0  0  0  0
   -4.4067    6.6828    0.6065 C   0  0  0  0  0  0
   -3.7694    7.7779    0.0235 C   0  0  0  0  0  0
   -2.5192    7.5771   -0.5644 C   0  0  0  0  0  0
   -1.9039    6.3674   -0.5923 N   0  0  0  0  0  0
   -1.7924    8.6697   -1.1900 C   0  0  0  0  0  0
   -1.2144    9.5400   -1.6880 N   0  0  0  0  0  0
    0.1892    0.2653   -0.2210 O   0  0  0  0  0  0
    1.6095    0.1782   -0.1672 C   0  0  0  0  0  0
    1.9971   -1.3062   -0.1175 C   0  0  0  0  0  0
    3.5160   -1.5235    0.0158 C   0  0  0  0  0  0
    3.8410   -3.7754    1.1503 C   0  0  0  0  0  0
    4.1784   -5.0378    0.7052 N   0  3  0  0  0  0
    4.3783   -5.0177   -0.6614 C   0  0  0  0  0  0
    3.5343   -3.3662    2.5830 C   0  0  0  0  0  0
    3.5841   -4.5258    3.5916 C   0  0  0  0  0  0
    4.1591   -3.7122   -1.0764 C   0  0  0  0  0  0
    3.8359   -2.9461    0.0377 N   0  0  0  0  0  0
    1.3474    2.7406   -0.3421 H   0  0  0  0  0  0
    0.1764    4.8426   -0.2574 H   0  0  0  0  0  0
   -3.5680    2.7775    0.0553 H   0  0  0  0  0  0
   -4.2831    4.5925    1.0499 H   0  0  0  0  0  0
   -5.3719    6.8027    1.0762 H   0  0  0  0  0  0
   -4.2392    8.7515    0.0354 H   0  0  0  0  0  0
    2.0512    0.6496   -1.0471 H   0  0  0  0  0  0
    1.9845    0.6896    0.7216 H   0  0  0  0  0  0
    1.4828   -1.7782    0.7210 H   0  0  0  0  0  0
    1.6308   -1.7988   -1.0200 H   0  0  0  0  0  0
    4.0523   -1.0561   -0.8120 H   0  0  0  0  0  0
    3.9039   -1.0591    0.9238 H   0  0  0  0  0  0
    4.6482   -5.9161   -1.1978 H   0  0  0  0  0  0
    4.2350   -2.5947    2.9038 H   0  0  0  0  0  0
    2.5475   -2.9049    2.6342 H   0  0  0  0  0  0
    3.3566   -4.1759    4.5991 H   0  0  0  0  0  0
    4.5716   -4.9879    3.6186 H   0  0  0  0  0  0
    2.8595   -5.3015    3.3410 H   0  0  0  0  0  0
    4.2026   -3.2608   -2.0572 H   0  0  0  0  0  0
    4.2633   -5.8552    1.2932 H   0  0  0  0  0  0
  1  7  1  0  0  0
  1  6  2  0  0  0
  1  2  1  0  0  0
  2 19  1  0  0  0
  2  3  2  0  0  0
  3  4  1  0  0  0
  3 30  1  0  0  0
  4  5  2  0  0  0
  4 31  1  0  0  0
  5 11  1  0  0  0
  5  6  1  0  0  0
  6 32  1  0  0  0
  7  8  1  0  0  0
  7  9  1  0  0  0
  7 10  1  0  0  0
 11 16  1  0  0  0
 11 12  2  0  0  0
 12 13  1  0  0  0
 12 33  1  0  0  0
 13 14  2  0  0  0
 13 34  1  0  0  0
 14 15  1  0  0  0
 14 35  1  0  0  0
 15 16  2  0  0  0
 15 17  1  0  0  0
 17 18  3  0  0  0
 19 20  1  0  0  0
 20 21  1  0  0  0
 20 36  1  0  0  0
 20 37  1  0  0  0
 21 22  1  0  0  0
 21 38  1  0  0  0
 21 39  1  0  0  0
 22 29  1  0  0  0
 22 40  1  0  0  0
 22 41  1  0  0  0
 23 29  1  0  0  0
 23 24  2  0  0  0
 23 26  1  0  0  0
 24 25  1  0  0  0
 24 49  1  0  0  0
 25 28  2  0  0  0
 25 42  1  0  0  0
 26 27  1  0  0  0
 26 43  1  0  0  0
 26 44  1  0  0  0
 27 45  1  0  0  0
 27 46  1  0  0  0
 27 47  1  0  0  0
 28 29  1  0  0  0
 28 48  1  0  0  0
M  CHG  1  24   1
M  END
> <chembl_id>
CHEMBL1210764

> <chembl_pref_name>
None

> <s_m_source_file>
sdf/inactives_sanitized.sdf

> <i_m_source_file_index>
432

> <i_lp_mmshare_version>
49012

> <i_m_ct_stereo_status>
1

> <i_f3d_flags>
0

> <s_epik_input>
TiNDYyhuMSlbY0hdW2NIXVtjSF1jMS1jKFtjSF0yKVtjSF1bY0hdYyhjMkMoRikoRilGKU9bQ0gyXVtDSDJdW0NIMl1uM1tjSF1bY0hdbmMzW0NIMl1bQ0gzXQ==

> <s_epik_cmdline>
J2VwaWtfcHl0aG9uJywgJy1waHQnLCAnMC41JywgJy1waCcsICc3LjUnLCAnLW50JywgJy1tYScsICcyMDAnLCAnLWltYWUnLCAnPGluZmlsZS5tYWU+JywgJy1vbWFlJywgJzxvdXRmaWxlLm1hZT4n

> <r_lp_tautomer_probability>
1

> <r_epik_Ionization_Penalty>
  0.2484

> <r_epik_Ionization_Penalty_Charging>
  0.0000

> <r_epik_Ionization_Penalty_Neutral>
  0.2484

> <r_epik_State_Penalty>
  0.2396

> <r_epik_Charging_Adjusted_Penalty>
0.23962135335597

> <i_epik_Tot_Q>
1

> <i_epik_Tot_abs_Q>
1

> <s_lp_Force_Field>
OPLS3e

> <r_lp_Energy>
37.167095

> <b_lp_Chiralities_Consistent>
1

> <s_lp_Variant>
sdf/inactives_sanitized.sdf:432-1

$$$$
sdf/inactives_sanitized.sdf:432
                    3D
 Schrodinger Suite 2020-1.
 48 50  0  0  1  0            999 V2000
   -1.7998    1.5291   -0.0000 C   0  0  0  0  0  0
   -0.3985    1.4923   -0.0904 C   0  0  0  0  0  0
    0.3080    2.7030   -0.1539 C   0  0  0  0  0  0
   -0.3640    3.9224   -0.1298 C   0  0  0  0  0  0
   -1.7606    3.9822   -0.0412 C   0  0  0  0  0  0
   -2.4585    2.7660    0.0254 C   0  0  0  0  0  0
   -2.6040    0.2258    0.0729 C   0  0  0  0  0  0
   -2.2234   -0.4796    1.1390 F   0  0  0  0  0  0
   -3.9192    0.4323    0.1665 F   0  0  0  0  0  0
   -2.3802   -0.5019   -1.0222 F   0  0  0  0  0  0
   -2.4779    5.2989   -0.0163 C   0  0  0  0  0  0
   -1.9257    6.4704   -0.5606 C   0  0  0  0  0  0
   -2.6562    7.6597   -0.5101 C   0  0  0  0  0  0
   -3.9218    7.6678    0.0764 C   0  0  0  0  0  0
   -4.4163    6.4693    0.5939 C   0  0  0  0  0  0
   -3.7192    5.3057    0.5508 N   0  0  0  0  0  0
   -5.7267    6.3967    1.2189 C   0  0  0  0  0  0
   -6.7701    6.3396    1.7166 N   0  0  0  0  0  0
    0.2115    0.2506   -0.1152 O   0  0  0  0  0  0
    1.6323    0.1553   -0.1259 C   0  0  0  0  0  0
    2.0110   -1.3316   -0.0922 C   0  0  0  0  0  0
    3.5337   -1.5611   -0.0659 C   0  0  0  0  0  0
    3.9386   -3.7957    1.1066 C   0  0  0  0  0  0
    4.2056   -5.0461    0.7894 N   0  0  0  0  0  0
    4.2738   -5.0707   -0.5287 C   0  0  0  0  0  0
    3.7618   -3.2731    2.5288 C   0  0  0  0  0  0
    3.8130   -4.3566    3.6201 C   0  0  0  0  0  0
    4.0503   -3.8199   -1.0756 C   0  0  0  0  0  0
    3.8395   -2.9855   -0.0078 N   0  0  0  0  0  0
    1.3850    2.7204   -0.2218 H   0  0  0  0  0  0
    0.2253    4.8261   -0.1693 H   0  0  0  0  0  0
   -3.5368    2.7835    0.0894 H   0  0  0  0  0  0
   -0.9531    6.4711   -1.0291 H   0  0  0  0  0  0
   -2.2445    8.5675   -0.9258 H   0  0  0  0  0  0
   -4.4966    8.5823    0.1213 H   0  0  0  0  0  0
    2.0365    0.6230   -1.0255 H   0  0  0  0  0  0
    2.0507    0.6644    0.7446 H   0  0  0  0  0  0
    1.5529   -1.7925    0.7841 H   0  0  0  0  0  0
    1.5802   -1.8293   -0.9626 H   0  0  0  0  0  0
    4.0050   -1.1379   -0.9544 H   0  0  0  0  0  0
    3.9932   -1.0657    0.7904 H   0  0  0  0  0  0
    4.4785   -5.9808   -1.0734 H   0  0  0  0  0  0
    4.5284   -2.5283    2.7455 H   0  0  0  0  0  0
    2.8099   -2.7489    2.6164 H   0  0  0  0  0  0
    3.6777   -3.9201    4.6100 H   0  0  0  0  0  0
    4.7709   -4.8781    3.6171 H   0  0  0  0  0  0
    3.0284   -5.1005    3.4768 H   0  0  0  0  0  0
    4.0212   -3.4575   -2.0929 H   0  0  0  0  0  0
  1  7  1  0  0  0
  1  6  2  0  0  0
  1  2  1  0  0  0
  2 19  1  0  0  0
  2  3  2  0  0  0
  3  4  1  0  0  0
  3 30  1  0  0  0
  4  5  2  0  0  0
  4 31  1  0  0  0
  5 11  1  0  0  0
  5  6  1  0  0  0
  6 32  1  0  0  0
  7  8  1  0  0  0
  7  9  1  0  0  0
  7 10  1  0  0  0
 11 16  1  0  0  0
 11 12  2  0  0  0
 12 13  1  0  0  0
 12 33  1  0  0  0
 13 14  2  0  0  0
 13 34  1  0  0  0
 14 15  1  0  0  0
 14 35  1  0  0  0
 15 16  2  0  0  0
 15 17  1  0  0  0
 17 18  3  0  0  0
 19 20  1  0  0  0
 20 21  1  0  0  0
 20 36  1  0  0  0
 20 37  1  0  0  0
 21 22  1  0  0  0
 21 38  1  0  0  0
 21 39  1  0  0  0
 22 29  1  0  0  0
 22 40  1  0  0  0
 22 41  1  0  0  0
 23 29  1  0  0  0
 23 24  2  0  0  0
 23 26  1  0  0  0
 24 25  1  0  0  0
 25 28  2  0  0  0
 25 42  1  0  0  0
 26 27  1  0  0  0
 26 43  1  0  0  0
 26 44  1  0  0  0
 27 45  1  0  0  0
 27 46  1  0  0  0
 27 47  1  0  0  0
 28 29  1  0  0  0
 28 48  1  0  0  0
M  END
> <chembl_id>
CHEMBL1210764

> <chembl_pref_name>
None

> <s_m_source_file>
sdf/inactives_sanitized.sdf

> <i_m_source_file_index>
432

> <i_lp_mmshare_version>
49012

> <i_m_ct_stereo_status>
1

> <i_f3d_flags>
0

> <s_epik_input>
TiNDYyhuMSlbY0hdW2NIXVtjSF1jMS1jKFtjSF0yKVtjSF1bY0hdYyhjMkMoRikoRilGKU9bQ0gyXVtDSDJdW0NIMl1uM1tjSF1bY0hdbmMzW0NIMl1bQ0gzXQ==

> <s_epik_cmdline>
J2VwaWtfcHl0aG9uJywgJy1waHQnLCAnMC41JywgJy1waCcsICc3LjUnLCAnLW50JywgJy1tYScsICcyMDAnLCAnLWltYWUnLCAnPGluZmlsZS5tYWU+JywgJy1vbWFlJywgJzxvdXRmaWxlLm1hZT4n

> <r_lp_tautomer_probability>
1

> <r_epik_Ionization_Penalty>
  0.6350

> <r_epik_Ionization_Penalty_Charging>
  0.6350

> <r_epik_Ionization_Penalty_Neutral>
  0.0000

> <r_epik_State_Penalty>
  0.6521

> <r_epik_Charging_Adjusted_Penalty>
1.28709258341366

> <i_epik_Tot_Q>
0

> <i_epik_Tot_abs_Q>
0

> <s_lp_Force_Field>
OPLS3e

> <r_lp_Energy>
31.604342

> <b_lp_Chiralities_Consistent>
1

> <s_lp_Variant>
sdf/inactives_sanitized.sdf:432-2

$$$$
sdf/inactives_sanitized.sdf:433
                    3D
 Schrodinger Suite 2020-1.
 62 63  0  0  1  0            999 V2000
   -3.5003    4.3203   -6.2151 C   0  0  0  0  0  0
   -4.4450    3.5378   -6.8786 C   0  0  0  0  0  0
   -4.8371    2.3108   -6.3450 C   0  0  0  0  0  0
   -4.2816    1.8674   -5.1484 C   0  0  0  0  0  0
   -3.3301    2.6399   -4.4681 C   0  0  0  0  0  0
   -2.9479    3.8711   -5.0192 C   0  0  0  0  0  0
   -2.7296    2.1593   -3.1873 C   0  0  0  0  0  0
   -2.4739    0.7970   -2.9840 C   0  0  0  0  0  0
   -1.8892    0.3501   -1.8035 C   0  0  0  0  0  0
   -1.5446    1.2609   -0.7997 C   0  0  0  0  0  0
   -1.8067    2.6187   -0.9878 C   0  0  0  0  0  0
   -2.3959    3.0614   -2.1683 C   0  0  0  0  0  0
   -5.1711    4.1092   -8.4125 S   0  0  0  0  0  0
   -6.7790    4.9166   -7.8481 C   0  0  0  0  0  0
   -4.2940    5.1496   -8.9615 O   0  0  0  0  0  0
   -5.5003    2.9225   -9.2103 O   0  0  0  0  0  0
   -0.8940    0.8004    0.5107 C   0  0  2  0  0  0
    0.0857   -0.2807    0.3265 N   0  0  1  0  0  0
   -1.9534    0.3614    1.5539 C   0  0  0  0  0  0
   -1.3855    0.0156    2.7110 F   0  0  0  0  0  0
   -2.8052    1.3517    1.8234 F   0  0  0  0  0  0
   -2.6742   -0.6820    1.1375 F   0  0  0  0  0  0
    1.4761    0.1198   -0.0139 C   0  0  2  0  0  0
    1.5686    0.3838   -1.5357 C   0  0  0  0  0  0
    2.4654   -0.9806    0.4628 C   0  0  0  0  0  0
    3.9789   -0.6429    0.3737 C   0  0  0  0  0  0
    4.5501   -0.7624   -1.0577 C   0  0  0  0  0  0
    4.7993   -1.4813    1.3821 C   0  0  0  0  0  0
    1.2698   -0.5063   -2.3354 O   0  0  0  0  0  0
    2.0119    1.6002   -1.8981 N   0  0  0  0  0  0
    2.2481    2.0132   -3.2805 C   0  0  0  0  0  0
    0.9384    2.5082   -3.9062 C   0  0  0  0  0  0
    0.3761    1.7391   -4.8418 N   0  0  0  0  0  0
    0.4604    3.5928   -3.5794 O   0  0  0  0  0  0
   -3.1895    5.2726   -6.6194 H   0  0  0  0  0  0
   -5.5726    1.7018   -6.8500 H   0  0  0  0  0  0
   -4.6058    0.9179   -4.7479 H   0  0  0  0  0  0
   -2.2075    4.4858   -4.5283 H   0  0  0  0  0  0
   -2.7089    0.0726   -3.7498 H   0  0  0  0  0  0
   -1.6985   -0.7055   -1.6753 H   0  0  0  0  0  0
   -1.5537    3.3358   -0.2205 H   0  0  0  0  0  0
   -2.5867    4.1180   -2.2855 H   0  0  0  0  0  0
   -7.3054    5.3007   -8.7212 H   0  0  0  0  0  0
   -6.5446    5.7324   -7.1649 H   0  0  0  0  0  0
   -7.3909    4.1704   -7.3421 H   0  0  0  0  0  0
   -0.3644    1.6516    0.9425 H   0  0  0  0  0  0
    0.0703   -0.8713    1.1460 H   0  0  0  0  0  0
    1.7380    1.0270    0.5357 H   0  0  0  0  0  0
    2.2375   -1.1445    1.5176 H   0  0  0  0  0  0
    2.2553   -1.9386   -0.0170 H   0  0  0  0  0  0
    4.0942    0.3971    0.6824 H   0  0  0  0  0  0
    3.8911   -1.3308   -1.7140 H   0  0  0  0  0  0
    5.5231   -1.2520   -1.0901 H   0  0  0  0  0  0
    4.6836    0.2244   -1.5017 H   0  0  0  0  0  0
    5.5373   -2.1238    0.9023 H   0  0  0  0  0  0
    4.1732   -2.1365    1.9881 H   0  0  0  0  0  0
    5.3399   -0.8318    2.0710 H   0  0  0  0  0  0
    2.2240    2.2791   -1.1818 H   0  0  0  0  0  0
    2.9662    2.8334   -3.2715 H   0  0  0  0  0  0
    2.7008    1.2099   -3.8654 H   0  0  0  0  0  0
    0.7946    0.8562   -5.0960 H   0  0  0  0  0  0
   -0.4796    2.0312   -5.2908 H   0  0  0  0  0  0
  1  6  2  0  0  0
  1  2  1  0  0  0
  1 35  1  0  0  0
  2  3  2  0  0  0
  2 13  1  0  0  0
  3  4  1  0  0  0
  3 36  1  0  0  0
  4  5  2  0  0  0
  4 37  1  0  0  0
  5  6  1  0  0  0
  5  7  1  0  0  0
  6 38  1  0  0  0
  7 12  2  0  0  0
  7  8  1  0  0  0
  8  9  2  0  0  0
  8 39  1  0  0  0
  9 10  1  0  0  0
  9 40  1  0  0  0
 10 17  1  0  0  0
 10 11  2  0  0  0
 11 12  1  0  0  0
 11 41  1  0  0  0
 12 42  1  0  0  0
 13 14  1  0  0  0
 13 15  2  0  0  0
 13 16  2  0  0  0
 14 43  1  0  0  0
 14 44  1  0  0  0
 14 45  1  0  0  0
 17 18  1  0  0  0
 17 19  1  0  0  0
 17 46  1  0  0  0
 18 23  1  0  0  0
 18 47  1  0  0  0
 19 20  1  0  0  0
 19 21  1  0  0  0
 19 22  1  0  0  0
 23 24  1  0  0  0
 23 25  1  0  0  0
 23 48  1  0  0  0
 24 29  2  0  0  0
 24 30  1  0  0  0
 25 26  1  0  0  0
 25 49  1  0  0  0
 25 50  1  0  0  0
 26 27  1  0  0  0
 26 28  1  0  0  0
 26 51  1  0  0  0
 27 52  1  0  0  0
 27 53  1  0  0  0
 27 54  1  0  0  0
 28 55  1  0  0  0
 28 56  1  0  0  0
 28 57  1  0  0  0
 30 31  1  0  0  0
 30 58  1  0  0  0
 31 32  1  0  0  0
 31 59  1  0  0  0
 31 60  1  0  0  0
 32 33  1  0  0  0
 32 34  2  0  0  0
 33 61  1  0  0  0
 33 62  1  0  0  0
M  END
> <chembl_id>
CHEMBL401175

> <chembl_pref_name>
None

> <i_m_ct_stereo_status>
1

> <s_m_source_file>
sdf/inactives_sanitized.sdf

> <i_m_source_file_index>
433

> <i_lp_mmshare_version>
49012

> <i_f3d_flags>
0

> <s_epik_input>
W0NIM11TKD1PKSg9TyljMVtjSF1bY0hdYyhbY0hdW2NIXTEpLWMyW2NIXVtjSF1jKFtjSF1bY0hdMilbQ0BASF0oQyhGKShGKUYpW05IXVtDQEBIXShbQ0gyXVtDSF0oW0NIM10pW0NIM10pQyg9TylbTkhdW0NIMl1DKD1PKVtOSDJd

> <s_epik_cmdline>
J2VwaWtfcHl0aG9uJywgJy1waHQnLCAnMC41JywgJy1waCcsICc3LjUnLCAnLW50JywgJy1tYScsICcyMDAnLCAnLWltYWUnLCAnPGluZmlsZS5tYWU+JywgJy1vbWFlJywgJzxvdXRmaWxlLm1hZT4n

> <r_lp_tautomer_probability>
1

> <r_epik_Ionization_Penalty>
  0.0004

> <r_epik_Ionization_Penalty_Charging>
  0.0000

> <r_epik_Ionization_Penalty_Neutral>
  0.0004

> <r_epik_State_Penalty>
 -0.0000

> <r_epik_Charging_Adjusted_Penalty>
0

> <i_epik_Tot_Q>
0

> <i_epik_Tot_abs_Q>
0

> <s_lp_Force_Field>
OPLS3e

> <r_lp_Energy>
27.080142

> <b_lp_Chiralities_Consistent>
1

> <s_lp_Variant>
sdf/inactives_sanitized.sdf:433-1

$$$$
sdf/inactives_sanitized.sdf:434
                    3D
 Schrodinger Suite 2020-1.
 43 44  0  0  1  0            999 V2000
   -2.1237   -1.1627   -0.0528 C   0  0  0  0  0  0
   -2.7418    0.0840   -0.1683 C   0  0  0  0  0  0
   -1.9764    1.2431   -0.2522 C   0  0  0  0  0  0
   -0.5763    1.1845   -0.2281 C   0  0  0  0  0  0
    0.0665   -0.0730   -0.1193 C   0  0  0  0  0  0
   -0.7272   -1.2244   -0.0214 C   0  0  0  0  0  0
   -2.9545   -2.4400    0.0644 C   0  0  0  0  0  0
   -2.3688   -3.3192    0.8797 F   0  0  0  0  0  0
   -4.1769   -2.1936    0.5396 F   0  0  0  0  0  0
   -3.0726   -2.9927   -1.1425 F   0  0  0  0  0  0
    1.5496   -0.2434   -0.1044 C   0  0  0  0  0  0
    2.2058   -0.9271    0.9296 C   0  0  0  0  0  0
    3.6003   -1.0304    0.8490 C   0  0  0  0  0  0
    4.3103   -0.4978   -0.1834 N   0  0  0  0  0  0
    3.5831    0.1353   -1.1380 C   0  0  0  0  0  0
    2.2349    0.2862   -1.1579 N   0  0  0  0  0  0
    4.3203    0.7169   -2.2457 C   0  0  0  0  0  0
    4.9076    1.1811   -3.1286 N   0  0  0  0  0  0
    4.4061   -1.7407    1.9283 C   0  0  0  0  0  0
    5.1584   -2.9835    1.4137 C   0  0  0  0  0  0
    5.9610   -3.6908    2.5138 C   0  0  0  0  0  0
    0.1992    2.4833   -0.2527 C   0  0  0  0  0  0
    0.0824    3.2916   -1.3399 N   0  0  0  0  0  0
    0.6411    4.6454   -1.3586 C   0  0  0  0  0  0
   -0.5524    2.9127   -2.6058 C   0  0  0  0  0  0
    0.8923    2.7675    0.7266 O   0  0  0  0  0  0
   -3.8191    0.1640   -0.1888 H   0  0  0  0  0  0
   -2.4841    2.1949   -0.3242 H   0  0  0  0  0  0
   -0.2469   -2.1891    0.0648 H   0  0  0  0  0  0
    1.6571   -1.3491    1.7595 H   0  0  0  0  0  0
    5.1121   -1.0259    2.3544 H   0  0  0  0  0  0
    3.7430   -2.0287    2.7460 H   0  0  0  0  0  0
    4.4473   -3.6885    0.9806 H   0  0  0  0  0  0
    5.8381   -2.7007    0.6086 H   0  0  0  0  0  0
    6.4713   -4.5698    2.1188 H   0  0  0  0  0  0
    5.3137   -4.0215    3.3268 H   0  0  0  0  0  0
    6.7192   -3.0303    2.9362 H   0  0  0  0  0  0
    1.0880    4.9397   -0.4081 H   0  0  0  0  0  0
   -0.1393    5.3703   -1.5924 H   0  0  0  0  0  0
    1.4124    4.7224   -2.1257 H   0  0  0  0  0  0
   -0.8805    1.8741   -2.6384 H   0  0  0  0  0  0
    0.1496    3.0505   -3.4290 H   0  0  0  0  0  0
   -1.4192    3.5462   -2.7963 H   0  0  0  0  0  0
  1  2  2  0  0  0
  1  7  1  0  0  0
  1  6  1  0  0  0
  2  3  1  0  0  0
  2 27  1  0  0  0
  3  4  2  0  0  0
  3 28  1  0  0  0
  4  5  1  0  0  0
  4 22  1  0  0  0
  5 11  1  0  0  0
  5  6  2  0  0  0
  6 29  1  0  0  0
  7  8  1  0  0  0
  7  9  1  0  0  0
  7 10  1  0  0  0
 11 16  2  0  0  0
 11 12  1  0  0  0
 12 13  2  0  0  0
 12 30  1  0  0  0
 13 14  1  0  0  0
 13 19  1  0  0  0
 14 15  2  0  0  0
 15 16  1  0  0  0
 15 17  1  0  0  0
 17 18  3  0  0  0
 19 20  1  0  0  0
 19 31  1  0  0  0
 19 32  1  0  0  0
 20 21  1  0  0  0
 20 33  1  0  0  0
 20 34  1  0  0  0
 21 35  1  0  0  0
 21 36  1  0  0  0
 21 37  1  0  0  0
 22 23  1  0  0  0
 22 26  2  0  0  0
 23 24  1  0  0  0
 23 25  1  0  0  0
 24 38  1  0  0  0
 24 39  1  0  0  0
 24 40  1  0  0  0
 25 41  1  0  0  0
 25 42  1  0  0  0
 25 43  1  0  0  0
M  END
> <chembl_id>
CHEMBL1270965

> <chembl_pref_name>
None

> <s_m_source_file>
sdf/inactives_sanitized.sdf

> <i_m_source_file_index>
434

> <i_lp_mmshare_version>
49012

> <i_m_ct_stereo_status>
1

> <i_f3d_flags>
0

> <s_epik_input>
RkMoRikoRiljMVtjSF1bY0hdYyhDKD1PKU4oW0NIM10pW0NIM10pYyhbY0hdMSktYzJbY0hdYyhuYyhuMilDI04pW0NIMl1bQ0gyXVtDSDNd

> <s_epik_cmdline>
J2VwaWtfcHl0aG9uJywgJy1waHQnLCAnMC41JywgJy1waCcsICc3LjUnLCAnLW50JywgJy1tYScsICcyMDAnLCAnLWltYWUnLCAnPGluZmlsZS5tYWU+JywgJy1vbWFlJywgJzxvdXRmaWxlLm1hZT4n

> <r_lp_tautomer_probability>
1

> <r_epik_Ionization_Penalty>
  0.0000

> <r_epik_Ionization_Penalty_Charging>
  0.0000

> <r_epik_Ionization_Penalty_Neutral>
  0.0000

> <r_epik_State_Penalty>
 -0.0000

> <r_epik_Charging_Adjusted_Penalty>
0

> <i_epik_Tot_Q>
0

> <i_epik_Tot_abs_Q>
0

> <s_lp_Force_Field>
OPLS3e

> <r_lp_Energy>
42.64793

> <b_lp_Chiralities_Consistent>
1

> <s_lp_Variant>
sdf/inactives_sanitized.sdf:434-1

$$$$
sdf/inactives_sanitized.sdf:435
                    3D
 Schrodinger Suite 2020-1.
 53 52  0  0  1  0            999 V2000
   -3.0236    3.7467    1.0172 C   0  0  0  0  0  0
   -1.8450    2.9989    0.6628 O   0  0  0  0  0  0
   -3.4336    3.5008    2.4907 C   0  0  0  0  0  0
   -4.1958    3.4303    0.0557 C   0  0  0  0  0  0
   -2.6063    5.2219    0.8464 C   0  0  0  0  0  0
   -1.7369    1.6429    0.6793 C   0  0  0  0  0  0
   -0.4669    1.2948    0.2427 N   0  0  0  0  0  0
   -2.6242    0.8604    1.0244 O   0  0  0  0  0  0
   -0.0085   -0.0911    0.1212 C   0  0  2  0  0  0
    1.5059   -0.0064   -0.0378 C   0  0  0  0  0  0
    2.2987   -0.7098    0.6617 N   0  0  0  0  0  0
   -0.6616   -0.8419   -1.0745 C   0  0  0  0  0  0
   -0.2595   -2.3251   -1.2506 C   0  0  0  0  0  0
   -0.6420   -3.2324   -0.0656 C   0  0  0  0  0  0
   -0.2835   -4.7053   -0.3030 C   0  0  0  0  0  0
    3.5872   -0.5109    0.3305 N   0  0  0  0  0  0
    4.5990   -1.1858    0.9104 C   0  0  0  0  0  0
    4.4530   -2.0288    1.7995 O   0  0  0  0  0  0
    6.0135   -0.8510    0.4089 C   0  0  0  0  0  0
    6.8403   -2.0771   -0.0621 C   0  0  0  0  0  0
    8.2811   -1.6598   -0.4103 C   0  0  0  0  0  0
    6.1949   -2.8280   -1.2466 C   0  0  0  0  0  0
   -4.2334    4.1759    2.7976 H   0  0  0  0  0  0
   -2.5929    3.6603    3.1672 H   0  0  0  0  0  0
   -3.7923    2.4851    2.6569 H   0  0  0  0  0  0
   -4.5536    2.4066    0.1649 H   0  0  0  0  0  0
   -3.8983    3.5574   -0.9860 H   0  0  0  0  0  0
   -5.0463    4.0890    0.2361 H   0  0  0  0  0  0
   -3.4242    5.9021    1.0884 H   0  0  0  0  0  0
   -2.2959    5.4345   -0.1779 H   0  0  0  0  0  0
   -1.7663    5.4771    1.4942 H   0  0  0  0  0  0
    0.1691    2.0333   -0.0200 H   0  0  0  0  0  0
   -0.2513   -0.6072    1.0531 H   0  0  0  0  0  0
    1.8222    0.6791   -0.8242 H   0  0  0  0  0  0
   -1.7474   -0.7964   -0.9793 H   0  0  0  0  0  0
   -0.4382   -0.3115   -2.0023 H   0  0  0  0  0  0
   -0.7390   -2.7046   -2.1541 H   0  0  0  0  0  0
    0.8128   -2.3997   -1.4363 H   0  0  0  0  0  0
   -0.1386   -2.8951    0.8406 H   0  0  0  0  0  0
   -1.7123   -3.1505    0.1286 H   0  0  0  0  0  0
   -0.5652   -5.3176    0.5541 H   0  0  0  0  0  0
    0.7886   -4.8299   -0.4597 H   0  0  0  0  0  0
   -0.7993   -5.1033   -1.1774 H   0  0  0  0  0  0
    3.7499    0.1675   -0.3992 H   0  0  0  0  0  0
    5.9540   -0.1290   -0.4083 H   0  0  0  0  0  0
    6.5406   -0.3316    1.2106 H   0  0  0  0  0  0
    6.9163   -2.7760    0.7734 H   0  0  0  0  0  0
    8.3033   -0.9572   -1.2444 H   0  0  0  0  0  0
    8.8873   -2.5226   -0.6893 H   0  0  0  0  0  0
    8.7718   -1.1817    0.4382 H   0  0  0  0  0  0
    6.0810   -2.1776   -2.1149 H   0  0  0  0  0  0
    5.2079   -3.2145   -0.9911 H   0  0  0  0  0  0
    6.8017   -3.6818   -1.5505 H   0  0  0  0  0  0
  1  2  1  0  0  0
  1  4  1  0  0  0
  1  5  1  0  0  0
  1  3  1  0  0  0
  2  6  1  0  0  0
  3 23  1  0  0  0
  3 24  1  0  0  0
  3 25  1  0  0  0
  4 26  1  0  0  0
  4 27  1  0  0  0
  4 28  1  0  0  0
  5 29  1  0  0  0
  5 30  1  0  0  0
  5 31  1  0  0  0
  6  7  1  0  0  0
  6  8  2  0  0  0
  7  9  1  0  0  0
  7 32  1  0  0  0
  9 12  1  0  0  0
  9 10  1  0  0  0
  9 33  1  0  0  0
 10 11  2  0  0  0
 10 34  1  0  0  0
 11 16  1  0  0  0
 12 13  1  0  0  0
 12 35  1  0  0  0
 12 36  1  0  0  0
 13 14  1  0  0  0
 13 37  1  0  0  0
 13 38  1  0  0  0
 14 15  1  0  0  0
 14 39  1  0  0  0
 14 40  1  0  0  0
 15 41  1  0  0  0
 15 42  1  0  0  0
 15 43  1  0  0  0
 16 17  1  0  0  0
 16 44  1  0  0  0
 17 18  2  0  0  0
 17 19  1  0  0  0
 19 20  1  0  0  0
 19 45  1  0  0  0
 19 46  1  0  0  0
 20 21  1  0  0  0
 20 22  1  0  0  0
 20 47  1  0  0  0
 21 48  1  0  0  0
 21 49  1  0  0  0
 21 50  1  0  0  0
 22 51  1  0  0  0
 22 52  1  0  0  0
 22 53  1  0  0  0
M  END
> <chembl_id>
CHEMBL204448

> <chembl_pref_name>
None

> <i_m_ct_stereo_status>
1

> <s_m_source_file>
sdf/inactives_sanitized.sdf

> <i_m_source_file_index>
435

> <i_lp_mmshare_version>
49012

> <i_f3d_flags>
0

> <s_epik_input>
W0NIM11DKFtDSDNdKShbQ0gzXSlPQyg9TylbTkhdW0NAQEhdKFtDSDJdW0NIMl1bQ0gyXVtDSDNdKS9bQ0hdPU4vW05IXUMoPU8pW0NIMl1bQ0hdKFtDSDNdKVtDSDNd

> <s_epik_cmdline>
J2VwaWtfcHl0aG9uJywgJy1waHQnLCAnMC41JywgJy1waCcsICc3LjUnLCAnLW50JywgJy1tYScsICcyMDAnLCAnLWltYWUnLCAnPGluZmlsZS5tYWU+JywgJy1vbWFlJywgJzxvdXRmaWxlLm1hZT4n

> <r_lp_tautomer_probability>
1

> <r_epik_Ionization_Penalty>
  0.0000

> <r_epik_Ionization_Penalty_Charging>
  0.0000

> <r_epik_Ionization_Penalty_Neutral>
  0.0000

> <r_epik_State_Penalty>
 -0.0000

> <r_epik_Charging_Adjusted_Penalty>
0

> <i_epik_Tot_Q>
0

> <i_epik_Tot_abs_Q>
0

> <s_epik_Chemistry_Notes>
This compound has an ester and may undergo hydrolysis at high or low pH. This compound has an imine and may undergo hydrolysis.

> <s_lp_Force_Field>
OPLS3e

> <r_lp_Energy>
14.214182

> <b_lp_Chiralities_Consistent>
1

> <s_lp_Variant>
sdf/inactives_sanitized.sdf:435-1

$$$$
sdf/inactives_sanitized.sdf:436
                    3D
 Schrodinger Suite 2020-1.
 59 59  0  0  1  0            999 V2000
   -2.3266    3.7732    0.3084 C   0  0  0  0  0  0
   -1.2261    2.8569    0.4599 O   0  0  0  0  0  0
   -3.3706    3.5900    1.4378 C   0  0  0  0  0  0
   -2.9883    3.6388   -1.0857 C   0  0  0  0  0  0
   -1.6814    5.1687    0.4322 C   0  0  0  0  0  0
   -1.3186    1.5005    0.4185 C   0  0  0  0  0  0
   -0.0564    0.9642    0.6240 N   0  0  0  0  0  0
   -2.3552    0.8608    0.2320 O   0  0  0  0  0  0
    0.2197   -0.4813    0.6150 C   0  0  2  0  0  0
    1.5751   -0.7623    1.2853 C   0  0  0  0  0  0
    2.3438    0.1198    1.7886 N   0  0  0  0  0  0
    0.1650   -1.1041   -0.8085 C   0  0  0  0  0  0
    1.1342   -0.4944   -1.8480 C   0  0  0  0  0  0
    0.9791   -1.1188   -3.2457 C   0  0  0  0  0  0
    1.9610   -0.5424   -4.2746 C   0  0  0  0  0  0
    3.4963   -0.3991    2.2467 N   0  0  0  0  0  0
    4.5007    0.3818    2.6797 C   0  0  0  0  0  0
    4.3775    1.5531    3.0483 O   0  0  0  0  0  0
    5.6867   -0.2212    2.4990 N   0  0  0  0  0  0
    6.9737    0.4660    2.3714 C   0  0  0  0  0  0
    7.0822    1.4167    1.1540 C   0  0  0  0  0  0
    6.6570    0.7956   -0.1725 C   0  0  0  0  0  0
    5.4078    1.1038   -0.7201 C   0  0  0  0  0  0
    5.0162    0.5297   -1.9259 C   0  0  0  0  0  0
    5.8737   -0.3520   -2.5805 C   0  0  0  0  0  0
    7.1203   -0.6630   -2.0408 C   0  0  0  0  0  0
    7.5137   -0.0874   -0.8351 C   0  0  0  0  0  0
   -4.1330    4.3692    1.4039 H   0  0  0  0  0  0
   -2.9007    3.6341    2.4211 H   0  0  0  0  0  0
   -3.8874    2.6328    1.3712 H   0  0  0  0  0  0
   -3.5008    2.6850   -1.2097 H   0  0  0  0  0  0
   -2.2483    3.7128   -1.8838 H   0  0  0  0  0  0
   -3.7280    4.4232   -1.2512 H   0  0  0  0  0  0
   -2.4217    5.9643    0.3373 H   0  0  0  0  0  0
   -0.9266    5.3298   -0.3392 H   0  0  0  0  0  0
   -1.1856    5.2960    1.3958 H   0  0  0  0  0  0
    0.7191    1.5964    0.7605 H   0  0  0  0  0  0
   -0.5444   -0.9699    1.2237 H   0  0  0  0  0  0
    1.8062   -1.8269    1.2841 H   0  0  0  0  0  0
    0.3444   -2.1789   -0.7424 H   0  0  0  0  0  0
   -0.8531   -1.0114   -1.1896 H   0  0  0  0  0  0
    2.1626   -0.6259   -1.5096 H   0  0  0  0  0  0
    0.9707    0.5819   -1.9170 H   0  0  0  0  0  0
    1.1229   -2.1983   -3.1836 H   0  0  0  0  0  0
   -0.0405   -0.9663   -3.6022 H   0  0  0  0  0  0
    1.7988   -0.9853   -5.2575 H   0  0  0  0  0  0
    2.9940   -0.7427   -3.9904 H   0  0  0  0  0  0
    1.8430    0.5370   -4.3745 H   0  0  0  0  0  0
    3.6386   -1.3773    2.0421 H   0  0  0  0  0  0
    5.7045   -1.2233    2.3768 H   0  0  0  0  0  0
    7.2151    0.9821    3.3021 H   0  0  0  0  0  0
    7.6832   -0.3516    2.2389 H   0  0  0  0  0  0
    6.4850    2.3117    1.3367 H   0  0  0  0  0  0
    8.1051    1.7856    1.0662 H   0  0  0  0  0  0
    4.7381    1.7825   -0.2116 H   0  0  0  0  0  0
    4.0522    0.7684   -2.3500 H   0  0  0  0  0  0
    5.5693   -0.7980   -3.5158 H   0  0  0  0  0  0
    7.7788   -1.3473   -2.5552 H   0  0  0  0  0  0
    8.4792   -0.3298   -0.4156 H   0  0  0  0  0  0
  1  4  1  0  0  0
  1  5  1  0  0  0
  1  3  1  0  0  0
  1  2  1  0  0  0
  2  6  1  0  0  0
  3 28  1  0  0  0
  3 29  1  0  0  0
  3 30  1  0  0  0
  4 31  1  0  0  0
  4 32  1  0  0  0
  4 33  1  0  0  0
  5 34  1  0  0  0
  5 35  1  0  0  0
  5 36  1  0  0  0
  6  8  2  0  0  0
  6  7  1  0  0  0
  7  9  1  0  0  0
  7 37  1  0  0  0
  9 10  1  0  0  0
  9 12  1  0  0  0
  9 38  1  0  0  0
 10 11  2  0  0  0
 10 39  1  0  0  0
 11 16  1  0  0  0
 12 13  1  0  0  0
 12 40  1  0  0  0
 12 41  1  0  0  0
 13 14  1  0  0  0
 13 42  1  0  0  0
 13 43  1  0  0  0
 14 15  1  0  0  0
 14 44  1  0  0  0
 14 45  1  0  0  0
 15 46  1  0  0  0
 15 47  1  0  0  0
 15 48  1  0  0  0
 16 17  1  0  0  0
 16 49  1  0  0  0
 17 18  2  0  0  0
 17 19  1  0  0  0
 19 20  1  0  0  0
 19 50  1  0  0  0
 20 21  1  0  0  0
 20 51  1  0  0  0
 20 52  1  0  0  0
 21 22  1  0  0  0
 21 53  1  0  0  0
 21 54  1  0  0  0
 22 23  2  0  0  0
 22 27  1  0  0  0
 23 24  1  0  0  0
 23 55  1  0  0  0
 24 25  2  0  0  0
 24 56  1  0  0  0
 25 26  1  0  0  0
 25 57  1  0  0  0
 26 27  2  0  0  0
 26 58  1  0  0  0
 27 59  1  0  0  0
M  END
> <chembl_id>
CHEMBL383206

> <chembl_pref_name>
None

> <i_m_ct_stereo_status>
1

> <s_m_source_file>
sdf/inactives_sanitized.sdf

> <i_m_source_file_index>
436

> <i_lp_mmshare_version>
49012

> <i_f3d_flags>
0

> <s_epik_input>
W0NIM11DKFtDSDNdKShbQ0gzXSlPQyg9TylbTkhdW0NAQEhdKFtDSDJdW0NIMl1bQ0gyXVtDSDNdKS9bQ0hdPU4vW05IXUMoPU8pW05IXVtDSDJdW0NIMl1jMVtjSF1bY0hdW2NIXVtjSF1bY0hdMQ==

> <s_epik_cmdline>
J2VwaWtfcHl0aG9uJywgJy1waHQnLCAnMC41JywgJy1waCcsICc3LjUnLCAnLW50JywgJy1tYScsICcyMDAnLCAnLWltYWUnLCAnPGluZmlsZS5tYWU+JywgJy1vbWFlJywgJzxvdXRmaWxlLm1hZT4n

> <r_lp_tautomer_probability>
1

> <r_epik_Ionization_Penalty>
  0.0001

> <r_epik_Ionization_Penalty_Charging>
  0.0000

> <r_epik_Ionization_Penalty_Neutral>
  0.0001

> <r_epik_State_Penalty>
 -0.0000

> <r_epik_Charging_Adjusted_Penalty>
0

> <i_epik_Tot_Q>
0

> <i_epik_Tot_abs_Q>
0

> <s_epik_Chemistry_Notes>
This compound has an ester and may undergo hydrolysis at high or low pH. This compound has an imine and may undergo hydrolysis.

> <s_lp_Force_Field>
OPLS3e

> <r_lp_Energy>
20.61742

> <b_lp_Chiralities_Consistent>
1

> <s_lp_Variant>
sdf/inactives_sanitized.sdf:436-1

$$$$
sdf/inactives_sanitized.sdf:437
                    3D
 Schrodinger Suite 2020-1.
 53 53  0  0  1  0            999 V2000
   -3.1531    3.5570   -0.8644 C   0  0  0  0  0  0
   -1.9954    2.8567   -0.3717 O   0  0  0  0  0  0
   -4.4620    2.9114   -0.3464 C   0  0  0  0  0  0
   -3.1507    3.6406   -2.4112 C   0  0  0  0  0  0
   -3.0187    4.9779   -0.2791 C   0  0  0  0  0  0
   -1.6822    1.5612   -0.6435 C   0  0  0  0  0  0
   -0.5018    1.2450    0.0156 N   0  0  0  0  0  0
   -2.3411    0.8019   -1.3559 O   0  0  0  0  0  0
    0.1216   -0.0834   -0.0209 C   0  0  2  0  0  0
   -0.3766   -0.8557    1.1982 C   0  0  0  0  0  0
   -0.8803   -2.0171    1.1010 N   0  0  0  0  0  0
    1.6663    0.0050   -0.0275 C   0  0  0  0  0  0
    2.2464    0.7222   -1.2637 C   0  0  0  0  0  0
    3.7837    0.7855   -1.2518 C   0  0  0  0  0  0
    4.3625    1.5011   -2.4798 C   0  0  0  0  0  0
   -1.2394   -2.5249    2.2947 N   0  0  0  0  0  0
   -1.7445   -3.7648    2.4308 C   0  0  0  0  0  0
   -2.0318   -4.5026    1.4848 O   0  0  0  0  0  0
   -1.8508   -4.0819    3.7381 N   0  0  0  0  0  0
   -2.3039   -5.2684    4.3478 C   0  0  0  0  0  0
   -2.2404   -5.2914    5.7445 C   0  0  0  0  0  0
   -2.6632   -6.4149    6.4497 C   0  0  0  0  0  0
   -3.1521   -7.5197    5.7584 C   0  0  0  0  0  0
   -3.2226   -7.5105    4.3680 C   0  0  0  0  0  0
   -2.8009   -6.3886    3.6592 C   0  0  0  0  0  0
   -5.3324    3.5153   -0.6060 H   0  0  0  0  0  0
   -4.4485    2.8060    0.7391 H   0  0  0  0  0  0
   -4.6249    1.9178   -0.7634 H   0  0  0  0  0  0
   -3.2969    2.6668   -2.8779 H   0  0  0  0  0  0
   -2.2059    4.0378   -2.7843 H   0  0  0  0  0  0
   -3.9462    4.2920   -2.7750 H   0  0  0  0  0  0
   -3.8490    5.6174   -0.5812 H   0  0  0  0  0  0
   -2.0971    5.4602   -0.6084 H   0  0  0  0  0  0
   -2.9985    4.9608    0.8117 H   0  0  0  0  0  0
   -0.0871    1.9460    0.6118 H   0  0  0  0  0  0
   -0.1757   -0.6035   -0.9361 H   0  0  0  0  0  0
   -0.2342   -0.3215    2.1372 H   0  0  0  0  0  0
    2.0873   -1.0015    0.0198 H   0  0  0  0  0  0
    2.0131    0.5137    0.8745 H   0  0  0  0  0  0
    1.9118    0.2104   -2.1673 H   0  0  0  0  0  0
    1.8476    1.7360   -1.3223 H   0  0  0  0  0  0
    4.1222    1.2969   -0.3496 H   0  0  0  0  0  0
    4.1922   -0.2247   -1.2019 H   0  0  0  0  0  0
    5.4514    1.5324   -2.4342 H   0  0  0  0  0  0
    4.0049    2.5294   -2.5442 H   0  0  0  0  0  0
    4.0846    0.9911   -3.4027 H   0  0  0  0  0  0
   -1.0438   -1.9393    3.0935 H   0  0  0  0  0  0
   -1.5588   -3.3706    4.3919 H   0  0  0  0  0  0
   -1.8622   -4.4399    6.2927 H   0  0  0  0  0  0
   -2.6117   -6.4292    7.5284 H   0  0  0  0  0  0
   -3.4805   -8.3913    6.3053 H   0  0  0  0  0  0
   -3.6043   -8.3717    3.8396 H   0  0  0  0  0  0
   -2.8756   -6.4225    2.5846 H   0  0  0  0  0  0
  1  4  1  0  0  0
  1  5  1  0  0  0
  1  3  1  0  0  0
  1  2  1  0  0  0
  2  6  1  0  0  0
  3 26  1  0  0  0
  3 27  1  0  0  0
  3 28  1  0  0  0
  4 29  1  0  0  0
  4 30  1  0  0  0
  4 31  1  0  0  0
  5 32  1  0  0  0
  5 33  1  0  0  0
  5 34  1  0  0  0
  6  7  1  0  0  0
  6  8  2  0  0  0
  7  9  1  0  0  0
  7 35  1  0  0  0
  9 10  1  0  0  0
  9 12  1  0  0  0
  9 36  1  0  0  0
 10 11  2  0  0  0
 10 37  1  0  0  0
 11 16  1  0  0  0
 12 13  1  0  0  0
 12 38  1  0  0  0
 12 39  1  0  0  0
 13 14  1  0  0  0
 13 40  1  0  0  0
 13 41  1  0  0  0
 14 15  1  0  0  0
 14 42  1  0  0  0
 14 43  1  0  0  0
 15 44  1  0  0  0
 15 45  1  0  0  0
 15 46  1  0  0  0
 16 17  1  0  0  0
 16 47  1  0  0  0
 17 18  2  0  0  0
 17 19  1  0  0  0
 19 20  1  0  0  0
 19 48  1  0  0  0
 20 21  2  0  0  0
 20 25  1  0  0  0
 21 22  1  0  0  0
 21 49  1  0  0  0
 22 23  2  0  0  0
 22 50  1  0  0  0
 23 24  1  0  0  0
 23 51  1  0  0  0
 24 25  2  0  0  0
 24 52  1  0  0  0
 25 53  1  0  0  0
M  END
> <chembl_id>
CHEMBL204079

> <chembl_pref_name>
None

> <i_m_ct_stereo_status>
1

> <s_m_source_file>
sdf/inactives_sanitized.sdf

> <i_m_source_file_index>
437

> <i_lp_mmshare_version>
49012

> <i_f3d_flags>
0

> <s_epik_input>
W0NIM11DKFtDSDNdKShbQ0gzXSlPQyg9TylbTkhdW0NAQEhdKFtDSDJdW0NIMl1bQ0gyXVtDSDNdKS9bQ0hdPU4vW05IXUMoPU8pW05IXWMxW2NIXVtjSF1bY0hdW2NIXVtjSF0x

> <s_epik_cmdline>
J2VwaWtfcHl0aG9uJywgJy1waHQnLCAnMC41JywgJy1waCcsICc3LjUnLCAnLW50JywgJy1tYScsICcyMDAnLCAnLWltYWUnLCAnPGluZmlsZS5tYWU+JywgJy1vbWFlJywgJzxvdXRmaWxlLm1hZT4n

> <r_lp_tautomer_probability>
1

> <r_epik_Ionization_Penalty>
  0.0005

> <r_epik_Ionization_Penalty_Charging>
  0.0000

> <r_epik_Ionization_Penalty_Neutral>
  0.0005

> <r_epik_State_Penalty>
 -0.0000

> <r_epik_Charging_Adjusted_Penalty>
0

> <i_epik_Tot_Q>
0

> <i_epik_Tot_abs_Q>
0

> <s_epik_Chemistry_Notes>
This compound has an ester and may undergo hydrolysis at high or low pH. This compound has an imine and may undergo hydrolysis.

> <s_lp_Force_Field>
OPLS3e

> <r_lp_Energy>
29.580878

> <b_lp_Chiralities_Consistent>
1

> <s_lp_Variant>
sdf/inactives_sanitized.sdf:437-1

$$$$
sdf/inactives_sanitized.sdf:438
                    3D
 Schrodinger Suite 2020-1.
 52 51  0  0  1  0            999 V2000
   -2.8284    3.8018    0.7131 C   0  0  0  0  0  0
   -1.6684    2.9620    0.5602 O   0  0  0  0  0  0
   -3.4412    3.6651    2.1290 C   0  0  0  0  0  0
   -3.8860    3.5084   -0.3801 C   0  0  0  0  0  0
   -2.2896    5.2352    0.5276 C   0  0  0  0  0  0
   -1.6627    1.6040    0.6391 C   0  0  0  0  0  0
   -0.3684    1.1534    0.4249 N   0  0  0  0  0  0
   -2.6475    0.8976    0.8619 O   0  0  0  0  0  0
   -0.0077   -0.2671    0.3915 C   0  0  2  0  0  0
    1.5135   -0.3079    0.5782 C   0  0  0  0  0  0
    2.3124   -0.9530   -0.1719 N   0  0  0  0  0  0
   -0.5250   -1.0134   -0.8781 C   0  0  0  0  0  0
   -0.2469   -0.3232   -2.2341 C   0  0  0  0  0  0
   -0.7628   -1.1362   -3.4338 C   0  0  0  0  0  0
   -0.4860   -0.4543   -4.7806 C   0  0  0  0  0  0
    3.5959   -0.8391    0.2153 N   0  0  0  0  0  0
    4.6035   -1.4356   -0.4467 C   0  0  0  0  0  0
    4.4694   -2.1415   -1.4505 O   0  0  0  0  0  0
    5.7883   -1.1764    0.1332 N   0  0  0  0  0  0
    7.0755   -1.7602   -0.2531 C   0  0  0  0  0  0
    7.1849   -3.2543    0.1119 C   0  0  0  0  0  0
    8.2380   -0.9457    0.3375 C   0  0  0  0  0  0
   -4.2326    4.3978    2.2915 H   0  0  0  0  0  0
   -2.6879    3.8199    2.9025 H   0  0  0  0  0  0
   -3.8772    2.6805    2.2972 H   0  0  0  0  0  0
   -4.3314    2.5200   -0.2688 H   0  0  0  0  0  0
   -3.4466    3.5529   -1.3774 H   0  0  0  0  0  0
   -4.7011    4.2324   -0.3488 H   0  0  0  0  0  0
   -3.0824    5.9784    0.6227 H   0  0  0  0  0  0
   -1.8329    5.3670   -0.4546 H   0  0  0  0  0  0
   -1.5261    5.4745    1.2696 H   0  0  0  0  0  0
    0.3527    1.8340    0.2358 H   0  0  0  0  0  0
   -0.4511   -0.7513    1.2644 H   0  0  0  0  0  0
    1.8353    0.2537    1.4553 H   0  0  0  0  0  0
   -0.1214   -2.0275   -0.8971 H   0  0  0  0  0  0
   -1.6035   -1.1467   -0.7803 H   0  0  0  0  0  0
   -0.7146    0.6622   -2.2460 H   0  0  0  0  0  0
    0.8235   -0.1525   -2.3526 H   0  0  0  0  0  0
   -0.3001   -2.1242   -3.4326 H   0  0  0  0  0  0
   -1.8362   -1.3007   -3.3303 H   0  0  0  0  0  0
   -0.8659   -1.0557   -5.6068 H   0  0  0  0  0  0
    0.5835   -0.3123   -4.9398 H   0  0  0  0  0  0
   -0.9656    0.5237   -4.8355 H   0  0  0  0  0  0
    3.7567   -0.2732    1.0357 H   0  0  0  0  0  0
    5.8205   -0.4859    0.8690 H   0  0  0  0  0  0
    7.1626   -1.6787   -1.3392 H   0  0  0  0  0  0
    8.1681   -3.6457   -0.1518 H   0  0  0  0  0  0
    6.4526   -3.8585   -0.4245 H   0  0  0  0  0  0
    7.0608   -3.4155    1.1834 H   0  0  0  0  0  0
    9.1975   -1.3927    0.0745 H   0  0  0  0  0  0
    8.1968   -0.9149    1.4272 H   0  0  0  0  0  0
    8.2487    0.0750   -0.0470 H   0  0  0  0  0  0
  1  2  1  0  0  0
  1  4  1  0  0  0
  1  5  1  0  0  0
  1  3  1  0  0  0
  2  6  1  0  0  0
  3 23  1  0  0  0
  3 24  1  0  0  0
  3 25  1  0  0  0
  4 26  1  0  0  0
  4 27  1  0  0  0
  4 28  1  0  0  0
  5 29  1  0  0  0
  5 30  1  0  0  0
  5 31  1  0  0  0
  6  7  1  0  0  0
  6  8  2  0  0  0
  7  9  1  0  0  0
  7 32  1  0  0  0
  9 12  1  0  0  0
  9 10  1  0  0  0
  9 33  1  0  0  0
 10 11  2  0  0  0
 10 34  1  0  0  0
 11 16  1  0  0  0
 12 13  1  0  0  0
 12 35  1  0  0  0
 12 36  1  0  0  0
 13 14  1  0  0  0
 13 37  1  0  0  0
 13 38  1  0  0  0
 14 15  1  0  0  0
 14 39  1  0  0  0
 14 40  1  0  0  0
 15 41  1  0  0  0
 15 42  1  0  0  0
 15 43  1  0  0  0
 16 17  1  0  0  0
 16 44  1  0  0  0
 17 18  2  0  0  0
 17 19  1  0  0  0
 19 20  1  0  0  0
 19 45  1  0  0  0
 20 21  1  0  0  0
 20 22  1  0  0  0
 20 46  1  0  0  0
 21 47  1  0  0  0
 21 48  1  0  0  0
 21 49  1  0  0  0
 22 50  1  0  0  0
 22 51  1  0  0  0
 22 52  1  0  0  0
M  END
> <chembl_id>
CHEMBL380659

> <chembl_pref_name>
None

> <i_m_ct_stereo_status>
1

> <s_m_source_file>
sdf/inactives_sanitized.sdf

> <i_m_source_file_index>
438

> <i_lp_mmshare_version>
49012

> <i_f3d_flags>
0

> <s_epik_input>
W0NIM11DKFtDSDNdKShbQ0gzXSlPQyg9TylbTkhdW0NAQEhdKFtDSDJdW0NIMl1bQ0gyXVtDSDNdKS9bQ0hdPU4vW05IXUMoPU8pW05IXVtDSF0oW0NIM10pW0NIM10=

> <s_epik_cmdline>
J2VwaWtfcHl0aG9uJywgJy1waHQnLCAnMC41JywgJy1waCcsICc3LjUnLCAnLW50JywgJy1tYScsICcyMDAnLCAnLWltYWUnLCAnPGluZmlsZS5tYWU+JywgJy1vbWFlJywgJzxvdXRmaWxlLm1hZT4n

> <r_lp_tautomer_probability>
1

> <r_epik_Ionization_Penalty>
  0.0000

> <r_epik_Ionization_Penalty_Charging>
  0.0000

> <r_epik_Ionization_Penalty_Neutral>
  0.0000

> <r_epik_State_Penalty>
 -0.0000

> <r_epik_Charging_Adjusted_Penalty>
0

> <i_epik_Tot_Q>
0

> <i_epik_Tot_abs_Q>
0

> <s_epik_Chemistry_Notes>
This compound has an ester and may undergo hydrolysis at high or low pH. This compound has an imine and may undergo hydrolysis.

> <s_lp_Force_Field>
OPLS3e

> <r_lp_Energy>
14.663717

> <b_lp_Chiralities_Consistent>
1

> <s_lp_Variant>
sdf/inactives_sanitized.sdf:438-1

$$$$
sdf/inactives_sanitized.sdf:439
                    3D
 Schrodinger Suite 2020-1.
 37 38  0  0  1  0            999 V2000
   -1.5567    1.0796    0.7112 C   0  0  0  0  0  0
   -0.5602    0.3197    1.9430 S   0  0  0  0  0  0
    0.3693   -0.8611    0.9059 C   0  0  0  0  0  0
    1.7340   -0.3958    0.3236 C   0  0  1  0  0  0
    1.6406    0.6995   -0.7921 C   0  0  1  0  0  0
    3.0399    1.1216   -1.3194 C   0  0  0  0  0  0
    3.9627    1.5611   -0.1654 C   0  0  0  0  0  0
    4.0789    0.4773    0.9216 C   0  0  0  0  0  0
    2.6927    0.0710    1.4496 C   0  0  0  0  0  0
    0.8220    0.2138   -2.0122 C   0  0  0  0  0  0
    1.0083   -0.9107   -2.4808 O   0  0  0  0  0  0
   -0.0786    1.0712   -2.5225 N   0  0  0  0  0  0
   -0.9496    0.7812   -3.6589 C   0  0  0  0  0  0
   -1.8735   -0.3404   -3.4109 C   0  0  0  0  0  0
   -2.5992   -1.2205   -3.2157 N   0  0  0  0  0  0
   -1.5290    2.3642    0.4339 N   0  0  0  0  0  0
   -2.5205    0.4285   -0.0160 N   0  0  0  0  0  0
   -3.1194    1.3717   -0.8029 C   0  0  0  0  0  0
   -2.4621    2.5496   -0.4861 C   0  0  0  0  0  0
    0.5500   -1.7342    1.5339 H   0  0  0  0  0  0
   -0.2791   -1.2333    0.1127 H   0  0  0  0  0  0
    2.1998   -1.2727   -0.1319 H   0  0  0  0  0  0
    1.1252    1.5742   -0.3906 H   0  0  0  0  0  0
    3.5509    0.2801   -1.7931 H   0  0  0  0  0  0
    2.9683    1.9718   -2.0004 H   0  0  0  0  0  0
    4.9535    1.8004   -0.5537 H   0  0  0  0  0  0
    3.5806    2.4825    0.2773 H   0  0  0  0  0  0
    4.5897   -0.3975    0.5163 H   0  0  0  0  0  0
    4.6979    0.8400    1.7431 H   0  0  0  0  0  0
    2.2535    0.9088    1.9929 H   0  0  0  0  0  0
    2.8003   -0.7196    2.1935 H   0  0  0  0  0  0
   -0.2279    1.9533   -2.0541 H   0  0  0  0  0  0
   -1.5479    1.6652   -3.8786 H   0  0  0  0  0  0
   -0.3587    0.5622   -4.5497 H   0  0  0  0  0  0
   -2.7468   -0.5551    0.0272 H   0  0  0  0  0  0
   -3.9211    1.1228   -1.4827 H   0  0  0  0  0  0
   -2.6593    3.5240   -0.9080 H   0  0  0  0  0  0
  1  2  1  0  0  0
  1 16  2  0  0  0
  1 17  1  0  0  0
  2  3  1  0  0  0
  3  4  1  0  0  0
  3 20  1  0  0  0
  3 21  1  0  0  0
  4  5  1  0  0  0
  4  9  1  0  0  0
  4 22  1  0  0  0
  5 10  1  0  0  0
  5  6  1  0  0  0
  5 23  1  0  0  0
  6  7  1  0  0  0
  6 24  1  0  0  0
  6 25  1  0  0  0
  7  8  1  0  0  0
  7 26  1  0  0  0
  7 27  1  0  0  0
  8  9  1  0  0  0
  8 28  1  0  0  0
  8 29  1  0  0  0
  9 30  1  0  0  0
  9 31  1  0  0  0
 10 11  2  0  0  0
 10 12  1  0  0  0
 12 13  1  0  0  0
 12 32  1  0  0  0
 13 14  1  0  0  0
 13 33  1  0  0  0
 13 34  1  0  0  0
 14 15  3  0  0  0
 16 19  1  0  0  0
 17 18  1  0  0  0
 17 35  1  0  0  0
 18 19  2  0  0  0
 18 36  1  0  0  0
 19 37  1  0  0  0
M  END
> <chembl_id>
CHEMBL201920

> <chembl_pref_name>
None

> <i_m_ct_stereo_status>
1

> <s_m_source_file>
sdf/inactives_sanitized.sdf

> <i_m_source_file_index>
439

> <i_lp_mmshare_version>
49012

> <i_f3d_flags>
0

> <s_epik_input>
W25IXTFbY0hdW2NIXW5jMVNbQ0gyXVtDQEhdMltDQEBIXShbQ0gyXVtDSDJdW0NIMl1bQ0gyXTIpQyg9TylbTkhdW0NIMl1DI04=

> <s_epik_cmdline>
J2VwaWtfcHl0aG9uJywgJy1waHQnLCAnMC41JywgJy1waCcsICc3LjUnLCAnLW50JywgJy1tYScsICcyMDAnLCAnLWltYWUnLCAnPGluZmlsZS5tYWU+JywgJy1vbWFlJywgJzxvdXRmaWxlLm1hZT4n

> <r_lp_tautomer_probability>
0.999999999976373

> <r_epik_Ionization_Penalty>
  0.2438

> <r_epik_Ionization_Penalty_Charging>
  0.2438

> <r_epik_Ionization_Penalty_Neutral>
  0.0000

> <r_epik_State_Penalty>
  0.2348

> <r_epik_Charging_Adjusted_Penalty>
0.478599657258645

> <i_epik_Tot_Q>
0

> <i_epik_Tot_abs_Q>
0

> <s_lp_Force_Field>
OPLS3e

> <r_lp_Energy>
11.218572

> <b_lp_Chiralities_Consistent>
1

> <s_lp_Variant>
sdf/inactives_sanitized.sdf:439-1

$$$$
sdf/inactives_sanitized.sdf:439
                    3D
 Schrodinger Suite 2020-1.
 38 39  0  0  1  0            999 V2000
   -1.6158    1.1331    1.2904 C   0  0  0  0  0  0
   -1.5095    0.8528   -0.4486 S   0  0  0  0  0  0
   -0.3502   -0.5525   -0.4899 C   0  0  0  0  0  0
    1.1358   -0.2303   -0.1663 C   0  0  1  0  0  0
    2.0272   -1.5027    0.0294 C   0  0  1  0  0  0
    3.5051   -1.1368    0.3362 C   0  0  0  0  0  0
    4.0842   -0.2170   -0.7575 C   0  0  0  0  0  0
    3.2211    1.0405   -0.9702 C   0  0  0  0  0  0
    1.7572    0.6693   -1.2652 C   0  0  0  0  0  0
    1.5247   -2.3994    1.1863 C   0  0  0  0  0  0
    1.1387   -1.8973    2.2439 O   0  0  0  0  0  0
    1.5228   -3.7261    0.9679 N   0  0  0  0  0  0
    1.1149   -4.7274    1.9499 C   0  0  0  0  0  0
    2.0068   -4.7758    3.1223 C   0  0  0  0  0  0
    2.7072   -4.8136    4.0425 N   0  0  0  0  0  0
   -1.0583    0.4011    2.3209 N   0  3  0  0  0  0
   -2.3070    2.1581    1.9011 N   0  0  0  0  0  0
   -2.1766    2.0737    3.2772 C   0  0  0  0  0  0
   -1.3874    0.9631    3.5423 C   0  0  0  0  0  0
   -0.7497   -1.3151    0.1781 H   0  0  0  0  0  0
   -0.4134   -0.9907   -1.4866 H   0  0  0  0  0  0
    1.1735    0.3352    0.7664 H   0  0  0  0  0  0
    1.9781   -2.1110   -0.8769 H   0  0  0  0  0  0
    3.5848   -0.5711    1.2675 H   0  0  0  0  0  0
    4.1402   -2.0246    0.3605 H   0  0  0  0  0  0
    5.1024    0.0743   -0.4960 H   0  0  0  0  0  0
    4.1598   -0.7685   -1.6962 H   0  0  0  0  0  0
    3.2679    1.6729   -0.0822 H   0  0  0  0  0  0
    3.6270    1.6348   -1.7898 H   0  0  0  0  0  0
    1.6932    0.1643   -2.2305 H   0  0  0  0  0  0
    1.1670    1.5782   -1.3890 H   0  0  0  0  0  0
    1.8980   -4.0767    0.0984 H   0  0  0  0  0  0
    0.0940   -4.5440    2.2889 H   0  0  0  0  0  0
    1.1246   -5.7102    1.4785 H   0  0  0  0  0  0
   -2.8318    2.8693    1.4119 H   0  0  0  0  0  0
   -2.6501    2.7984    3.9239 H   0  0  0  0  0  0
   -1.0344    0.5261    4.4656 H   0  0  0  0  0  0
   -0.4863   -0.4238    2.2003 H   0  0  0  0  0  0
  1  2  1  0  0  0
  1 16  2  0  0  0
  1 17  1  0  0  0
  2  3  1  0  0  0
  3  4  1  0  0  0
  3 20  1  0  0  0
  3 21  1  0  0  0
  4  5  1  0  0  0
  4  9  1  0  0  0
  4 22  1  0  0  0
  5 10  1  0  0  0
  5  6  1  0  0  0
  5 23  1  0  0  0
  6  7  1  0  0  0
  6 24  1  0  0  0
  6 25  1  0  0  0
  7  8  1  0  0  0
  7 26  1  0  0  0
  7 27  1  0  0  0
  8  9  1  0  0  0
  8 28  1  0  0  0
  8 29  1  0  0  0
  9 30  1  0  0  0
  9 31  1  0  0  0
 10 11  2  0  0  0
 10 12  1  0  0  0
 12 13  1  0  0  0
 12 32  1  0  0  0
 13 14  1  0  0  0
 13 33  1  0  0  0
 13 34  1  0  0  0
 14 15  3  0  0  0
 16 19  1  0  0  0
 16 38  1  0  0  0
 17 18  1  0  0  0
 17 35  1  0  0  0
 18 19  2  0  0  0
 18 36  1  0  0  0
 19 37  1  0  0  0
M  CHG  1  16   1
M  END
> <chembl_id>
CHEMBL201920

> <chembl_pref_name>
None

> <i_m_ct_stereo_status>
1

> <s_m_source_file>
sdf/inactives_sanitized.sdf

> <i_m_source_file_index>
439

> <i_lp_mmshare_version>
49012

> <i_f3d_flags>
0

> <s_epik_input>
W25IXTFbY0hdW2NIXW5jMVNbQ0gyXVtDQEhdMltDQEBIXShbQ0gyXVtDSDJdW0NIMl1bQ0gyXTIpQyg9TylbTkhdW0NIMl1DI04=

> <s_epik_cmdline>
J2VwaWtfcHl0aG9uJywgJy1waHQnLCAnMC41JywgJy1waCcsICc3LjUnLCAnLW50JywgJy1tYScsICcyMDAnLCAnLWltYWUnLCAnPGluZmlsZS5tYWU+JywgJy1vbWFlJywgJzxvdXRmaWxlLm1hZT4n

> <r_lp_tautomer_probability>
0.999999999999994

> <r_epik_Ionization_Penalty>
  0.6439

> <r_epik_Ionization_Penalty_Charging>
  0.0000

> <r_epik_Ionization_Penalty_Neutral>
  0.6439

> <r_epik_State_Penalty>
  0.6618

> <r_epik_Charging_Adjusted_Penalty>
0.661845193262724

> <i_epik_Tot_Q>
1

> <i_epik_Tot_abs_Q>
1

> <s_lp_Force_Field>
OPLS3e

> <r_lp_Energy>
13.881801

> <b_lp_Chiralities_Consistent>
1

> <s_lp_Variant>
sdf/inactives_sanitized.sdf:439-2

$$$$
sdf/inactives_sanitized.sdf:440
                    3D
 Schrodinger Suite 2020-1.
 44 46  0  0  1  0            999 V2000
   -1.5484    1.0122    2.3444 C   0  0  0  0  0  0
    0.0321    1.4459    1.6938 S   0  0  0  0  0  0
    0.5149   -0.1605    0.9814 C   0  0  0  0  0  0
    1.9290   -0.2259    0.3442 C   0  0  1  0  0  0
    2.3203   -1.6571   -0.1568 C   0  0  1  0  0  0
    3.7448   -1.6818   -0.7766 C   0  0  0  0  0  0
    3.8646   -0.6543   -1.9200 C   0  0  0  0  0  0
    3.4679    0.7624   -1.4646 C   0  0  0  0  0  0
    2.0638    0.7740   -0.8345 C   0  0  0  0  0  0
    2.2900   -2.6982    0.9875 C   0  0  0  0  0  0
    2.9544   -2.5191    2.0097 O   0  0  0  0  0  0
    1.5033   -3.7742    0.8102 N   0  0  0  0  0  0
    1.3701   -4.8693    1.7671 C   0  0  0  0  0  0
    2.6067   -5.6587    1.9061 C   0  0  0  0  0  0
    3.5774   -6.2790    2.0145 N   0  0  0  0  0  0
   -2.2578    1.9877    2.9628 O   0  0  0  0  0  0
   -3.3905    1.3384    3.3397 C   0  0  0  0  0  0
   -3.3818    0.0739    2.9862 N   0  0  0  0  0  0
   -2.1737   -0.1398    2.3294 N   0  0  0  0  0  0
   -6.4575    3.5005    5.4549 N   0  0  0  0  0  0
   -6.5740    2.1700    5.2151 C   0  0  0  0  0  0
   -5.6035    1.4333    4.5334 C   0  0  0  0  0  0
   -4.4529    2.0885    4.0723 C   0  0  0  0  0  0
   -4.3237    3.4630    4.3157 C   0  0  0  0  0  0
   -5.3407    4.1262    5.0050 C   0  0  0  0  0  0
   -0.2331   -0.4458    0.2401 H   0  0  0  0  0  0
    0.4395   -0.8879    1.7897 H   0  0  0  0  0  0
    2.6527    0.0659    1.1088 H   0  0  0  0  0  0
    1.5948   -1.9889   -0.9033 H   0  0  0  0  0  0
    4.5000   -1.3930   -0.0420 H   0  0  0  0  0  0
    3.9729   -2.6562   -1.2128 H   0  0  0  0  0  0
    4.8851   -0.6455   -2.3054 H   0  0  0  0  0  0
    3.2290   -0.9597   -2.7528 H   0  0  0  0  0  0
    4.1964    1.1340   -0.7422 H   0  0  0  0  0  0
    3.5011    1.4481   -2.3119 H   0  0  0  0  0  0
    1.3154    0.5452   -1.5951 H   0  0  0  0  0  0
    1.8238    1.7859   -0.5070 H   0  0  0  0  0  0
    1.0184   -3.8831   -0.0687 H   0  0  0  0  0  0
    1.0779   -4.4939    2.7493 H   0  0  0  0  0  0
    0.5781   -5.5387    1.4316 H   0  0  0  0  0  0
   -7.4699    1.6914    5.5822 H   0  0  0  0  0  0
   -5.7463    0.3748    4.3700 H   0  0  0  0  0  0
   -3.4562    4.0122    3.9794 H   0  0  0  0  0  0
   -5.2680    5.1848    5.2070 H   0  0  0  0  0  0
  1 19  2  0  0  0
  1 16  1  0  0  0
  1  2  1  0  0  0
  2  3  1  0  0  0
  3  4  1  0  0  0
  3 26  1  0  0  0
  3 27  1  0  0  0
  4  5  1  0  0  0
  4  9  1  0  0  0
  4 28  1  0  0  0
  5  6  1  0  0  0
  5 10  1  0  0  0
  5 29  1  0  0  0
  6  7  1  0  0  0
  6 30  1  0  0  0
  6 31  1  0  0  0
  7  8  1  0  0  0
  7 32  1  0  0  0
  7 33  1  0  0  0
  8  9  1  0  0  0
  8 34  1  0  0  0
  8 35  1  0  0  0
  9 36  1  0  0  0
  9 37  1  0  0  0
 10 11  2  0  0  0
 10 12  1  0  0  0
 12 13  1  0  0  0
 12 38  1  0  0  0
 13 14  1  0  0  0
 13 39  1  0  0  0
 13 40  1  0  0  0
 14 15  3  0  0  0
 16 17  1  0  0  0
 17 18  2  0  0  0
 17 23  1  0  0  0
 18 19  1  0  0  0
 20 25  2  0  0  0
 20 21  1  0  0  0
 21 22  2  0  0  0
 21 41  1  0  0  0
 22 23  1  0  0  0
 22 42  1  0  0  0
 23 24  2  0  0  0
 24 25  1  0  0  0
 24 43  1  0  0  0
 25 44  1  0  0  0
M  END
> <chembl_id>
CHEMBL202524

> <chembl_pref_name>
None

> <i_m_ct_stereo_status>
1

> <s_m_source_file>
sdf/inactives_sanitized.sdf

> <i_m_source_file_index>
440

> <i_lp_mmshare_version>
49012

> <i_f3d_flags>
0

> <s_epik_input>
W2NIXTFbY0hdbltjSF1bY0hdYzEtYyhubjIpb2MyU1tDSDJdW0NASF0zW0NAQEhdKFtDSDJdW0NIMl1bQ0gyXVtDSDJdMylDKD1PKVtOSF1bQ0gyXUMjTg==

> <s_epik_cmdline>
J2VwaWtfcHl0aG9uJywgJy1waHQnLCAnMC41JywgJy1waCcsICc3LjUnLCAnLW50JywgJy1tYScsICcyMDAnLCAnLWltYWUnLCAnPGluZmlsZS5tYWU+JywgJy1vbWFlJywgJzxvdXRmaWxlLm1hZT4n

> <r_lp_tautomer_probability>
1

> <r_epik_Ionization_Penalty>
  0.0001

> <r_epik_Ionization_Penalty_Charging>
  0.0000

> <r_epik_Ionization_Penalty_Neutral>
  0.0001

> <r_epik_State_Penalty>
 -0.0000

> <r_epik_Charging_Adjusted_Penalty>
0

> <i_epik_Tot_Q>
0

> <i_epik_Tot_abs_Q>
0

> <s_lp_Force_Field>
OPLS3e

> <r_lp_Energy>
24.839765

> <b_lp_Chiralities_Consistent>
1

> <s_lp_Variant>
sdf/inactives_sanitized.sdf:440-1

$$$$
sdf/inactives_sanitized.sdf:441
                    3D
 Schrodinger Suite 2020-1.
 48 48  0  0  1  0            999 V2000
   -1.6476    4.2669    1.6533 C   0  0  0  0  0  0
   -1.2371    3.2343    0.7370 O   0  0  0  0  0  0
   -0.4346    4.8646    2.4080 C   0  0  0  0  0  0
   -2.7195    3.7488    2.6466 C   0  0  0  0  0  0
   -2.2733    5.3509    0.7521 C   0  0  0  0  0  0
   -0.6621    2.0549    1.0914 C   0  0  0  0  0  0
   -0.5227    1.2648   -0.0471 N   0  0  0  0  0  0
   -0.3490    1.7332    2.2394 O   0  0  0  0  0  0
   -0.0027   -0.1199   -0.0561 C   0  0  2  0  0  0
   -0.9541   -1.1141    0.6476 C   0  0  0  0  0  0
   -2.1219   -0.8215    1.0557 N   0  0  0  0  0  0
    1.4581   -0.2286    0.4640 C   0  0  0  0  0  0
    2.2200   -1.4873   -0.0026 C   0  0  0  0  0  0
    3.6798   -1.5156    0.4835 C   0  0  0  0  0  0
    4.4394   -2.7678    0.0249 C   0  0  0  0  0  0
   -2.8281   -1.8076    1.7657 N   0  0  2  0  0  0
   -3.4569   -1.1163    2.7097 N   0  3  0  0  0  0
   -5.3307    0.0986    4.0460 S   0  0  0  0  0  0
   -4.7303   -0.7558    2.6604 C   0  0  0  0  0  0
   -2.7605   -0.6948    3.9476 C   0  0  0  0  0  0
   -3.8734   -0.4638    4.9650 C   0  0  0  0  0  0
   -0.7234    5.7359    2.9971 H   0  0  0  0  0  0
    0.3446    5.1831    1.7142 H   0  0  0  0  0  0
    0.0190    4.1497    3.0943 H   0  0  0  0  0  0
   -2.3199    3.0068    3.3377 H   0  0  0  0  0  0
   -3.5534    3.2812    2.1211 H   0  0  0  0  0  0
   -3.1266    4.5608    3.2502 H   0  0  0  0  0  0
   -2.6363    6.1985    1.3350 H   0  0  0  0  0  0
   -3.1180    4.9595    0.1830 H   0  0  0  0  0  0
   -1.5520    5.7354    0.0293 H   0  0  0  0  0  0
   -0.8036    1.6623   -0.9318 H   0  0  0  0  0  0
    0.0112   -0.3879   -1.1133 H   0  0  0  0  0  0
   -0.5258   -2.1070    0.7616 H   0  0  0  0  0  0
    2.0161    0.6472    0.1268 H   0  0  0  0  0  0
    1.4758   -0.1764    1.5543 H   0  0  0  0  0  0
    1.7113   -2.3840    0.3527 H   0  0  0  0  0  0
    2.2028   -1.5372   -1.0924 H   0  0  0  0  0  0
    4.2036   -0.6287    0.1238 H   0  0  0  0  0  0
    3.7038   -1.4631    1.5729 H   0  0  0  0  0  0
    5.4652   -2.7572    0.3940 H   0  0  0  0  0  0
    4.4802   -2.8300   -1.0631 H   0  0  0  0  0  0
    3.9646   -3.6771    0.3951 H   0  0  0  0  0  0
   -2.2059   -2.5210    2.1186 H   0  0  0  0  0  0
   -5.3388   -0.9919    1.8001 H   0  0  0  0  0  0
   -2.0485   -1.4613    4.2576 H   0  0  0  0  0  0
   -2.2258    0.2305    3.7243 H   0  0  0  0  0  0
   -4.1382   -1.3909    5.4766 H   0  0  0  0  0  0
   -3.5992    0.2763    5.7177 H   0  0  0  0  0  0
  1  2  1  0  0  0
  1  4  1  0  0  0
  1  5  1  0  0  0
  1  3  1  0  0  0
  2  6  1  0  0  0
  3 22  1  0  0  0
  3 23  1  0  0  0
  3 24  1  0  0  0
  4 25  1  0  0  0
  4 26  1  0  0  0
  4 27  1  0  0  0
  5 28  1  0  0  0
  5 29  1  0  0  0
  5 30  1  0  0  0
  6  7  1  0  0  0
  6  8  2  0  0  0
  7  9  1  0  0  0
  7 31  1  0  0  0
  9 12  1  0  0  0
  9 10  1  0  0  0
  9 32  1  0  0  0
 10 11  2  0  0  0
 10 33  1  0  0  0
 11 16  1  0  0  0
 12 13  1  0  0  0
 12 34  1  0  0  0
 12 35  1  0  0  0
 13 14  1  0  0  0
 13 36  1  0  0  0
 13 37  1  0  0  0
 14 15  1  0  0  0
 14 38  1  0  0  0
 14 39  1  0  0  0
 15 40  1  0  0  0
 15 41  1  0  0  0
 15 42  1  0  0  0
 16 17  1  0  0  0
 16 43  1  0  0  0
 17 19  2  0  0  0
 17 20  1  0  0  0
 18 19  1  0  0  0
 18 21  1  0  0  0
 19 44  1  0  0  0
 20 21  1  0  0  0
 20 45  1  0  0  0
 20 46  1  0  0  0
 21 47  1  0  0  0
 21 48  1  0  0  0
M  CHG  1  17   1
M  END
> <chembl_id>
CHEMBL204305

> <chembl_pref_name>
None

> <i_m_ct_stereo_status>
1

> <s_m_source_file>
sdf/inactives_sanitized.sdf

> <i_m_source_file_index>
441

> <i_lp_mmshare_version>
49012

> <i_f3d_flags>
0

> <s_epik_input>
W0NIM11DKFtDSDNdKShbQ0gzXSlPQyg9TylbTkhdW0NAQEhdKFtDSDJdW0NIMl1bQ0gyXVtDSDNdKS9bQ0hdPU4vW05IXVtOK10xPVtDSF1TW0NIMl1bQ0gyXTE=

> <s_epik_cmdline>
J2VwaWtfcHl0aG9uJywgJy1waHQnLCAnMC41JywgJy1waCcsICc3LjUnLCAnLW50JywgJy1tYScsICcyMDAnLCAnLWltYWUnLCAnPGluZmlsZS5tYWU+JywgJy1vbWFlJywgJzxvdXRmaWxlLm1hZT4n

> <r_lp_tautomer_probability>
1

> <r_epik_Ionization_Penalty>
  0.0000

> <r_epik_Ionization_Penalty_Charging>
  0.0000

> <r_epik_Ionization_Penalty_Neutral>
  0.0000

> <r_epik_State_Penalty>
 -0.0000

> <r_epik_Charging_Adjusted_Penalty>
0

> <i_epik_Tot_Q>
1

> <i_epik_Tot_abs_Q>
1

> <s_epik_Chemistry_Notes>
This compound has an ester and may undergo hydrolysis at high or low pH. This compound has an imine and may undergo hydrolysis.

> <s_lp_Force_Field>
OPLS3e

> <r_lp_Energy>
11.940534

> <b_lp_Chiralities_Consistent>
1

> <s_lp_Variant>
sdf/inactives_sanitized.sdf:441-1

$$$$
sdf/inactives_sanitized.sdf:442
                    3D
 Schrodinger Suite 2020-1.
 56 58  0  0  1  0            999 V2000
   -1.5897    3.4770   -0.5414 C   0  0  0  0  0  0
   -2.4206    3.4954    0.7933 C   0  0  0  0  0  0
   -3.7081    2.6389    0.7124 C   0  0  0  0  0  0
   -4.5942    3.0621   -0.4801 C   0  0  0  0  0  0
   -3.8246    3.0980   -1.8190 C   0  0  0  0  0  0
   -2.5273    3.9382   -1.7122 C   0  0  0  0  0  0
    0.1147    8.4414    0.3038 C   0  0  0  0  0  0
    1.2010    7.6062    0.0628 C   0  0  0  0  0  0
    0.9872    6.2528   -0.1836 C   0  0  0  0  0  0
   -0.3068    5.7223   -0.1898 C   0  0  0  0  0  0
   -1.3927    6.5788    0.0489 C   0  0  0  0  0  0
   -1.1805    7.9329    0.2967 C   0  0  0  0  0  0
   -0.3995    4.3402   -0.4574 N   0  0  0  0  0  0
   -1.0633    2.0277   -0.8329 C   0  0  0  0  0  0
   -0.6856    1.2673    0.2157 N   0  0  0  0  0  0
   -0.9444    1.6267   -1.9942 O   0  0  0  0  0  0
   -0.1443   -0.0880    0.1305 C   0  0  0  0  0  0
    1.3074   -0.1370   -0.3781 C   0  0  0  0  0  0
    1.8500   -1.4906   -0.3997 N   0  0  0  0  0  0
    3.1438   -1.7560   -0.8815 C   0  0  0  0  0  0
    3.9257   -0.7995   -1.5420 C   0  0  0  0  0  0
    5.1957   -1.1331   -2.0045 C   0  0  0  0  0  0
    5.7049   -2.4184   -1.8200 C   0  0  0  0  0  0
    4.9216   -3.3747   -1.1558 C   0  0  0  0  0  0
    3.6520   -3.0417   -0.6911 C   0  0  0  0  0  0
    6.9714   -2.6578   -2.3181 O   0  0  0  0  0  0
    7.5389   -3.9558   -2.1779 C   0  0  0  0  0  0
   -1.8138    3.1613    1.6364 H   0  0  0  0  0  0
   -2.7237    4.4989    1.0736 H   0  0  0  0  0  0
   -3.4597    1.5808    0.6257 H   0  0  0  0  0  0
   -4.2727    2.7348    1.6407 H   0  0  0  0  0  0
   -5.4487    2.3895   -0.5631 H   0  0  0  0  0  0
   -5.0085    4.0519   -0.2816 H   0  0  0  0  0  0
   -3.5954    2.0798   -2.1345 H   0  0  0  0  0  0
   -4.4657    3.5107   -2.5989 H   0  0  0  0  0  0
   -2.8204    4.9791   -1.6019 H   0  0  0  0  0  0
   -1.9986    3.9083   -2.6669 H   0  0  0  0  0  0
    0.2778    9.4921    0.4940 H   0  0  0  0  0  0
    2.2043    8.0058    0.0661 H   0  0  0  0  0  0
    1.8411    5.6162   -0.3684 H   0  0  0  0  0  0
   -2.4135    6.2411    0.0361 H   0  0  0  0  0  0
   -2.0199    8.5877    0.4782 H   0  0  0  0  0  0
    0.3895    3.9837   -0.9775 H   0  0  0  0  0  0
   -0.7804    1.6524    1.1442 H   0  0  0  0  0  0
   -0.1958   -0.5286    1.1269 H   0  0  0  0  0  0
   -0.7881   -0.7102   -0.4948 H   0  0  0  0  0  0
    1.3729    0.2848   -1.3818 H   0  0  0  0  0  0
    1.9490    0.4771    0.2556 H   0  0  0  0  0  0
    1.4692   -2.1488    0.2649 H   0  0  0  0  0  0
    3.5665    0.2049   -1.7070 H   0  0  0  0  0  0
    5.7883   -0.3871   -2.5138 H   0  0  0  0  0  0
    5.2793   -4.3799   -0.9930 H   0  0  0  0  0  0
    3.0638   -3.7939   -0.1847 H   0  0  0  0  0  0
    8.5303   -3.9665   -2.6304 H   0  0  0  0  0  0
    6.9372   -4.7126   -2.6838 H   0  0  0  0  0  0
    7.6530   -4.2311   -1.1284 H   0  0  0  0  0  0
  1 13  1  0  0  0
  1 14  1  0  0  0
  1  2  1  0  0  0
  1  6  1  0  0  0
  2  3  1  0  0  0
  2 28  1  0  0  0
  2 29  1  0  0  0
  3  4  1  0  0  0
  3 30  1  0  0  0
  3 31  1  0  0  0
  4  5  1  0  0  0
  4 32  1  0  0  0
  4 33  1  0  0  0
  5  6  1  0  0  0
  5 34  1  0  0  0
  5 35  1  0  0  0
  6 36  1  0  0  0
  6 37  1  0  0  0
  7  8  2  0  0  0
  7 12  1  0  0  0
  7 38  1  0  0  0
  8  9  1  0  0  0
  8 39  1  0  0  0
  9 10  2  0  0  0
  9 40  1  0  0  0
 10 11  1  0  0  0
 10 13  1  0  0  0
 11 12  2  0  0  0
 11 41  1  0  0  0
 12 42  1  0  0  0
 13 43  1  0  0  0
 14 15  1  0  0  0
 14 16  2  0  0  0
 15 17  1  0  0  0
 15 44  1  0  0  0
 17 18  1  0  0  0
 17 45  1  0  0  0
 17 46  1  0  0  0
 18 19  1  0  0  0
 18 47  1  0  0  0
 18 48  1  0  0  0
 19 20  1  0  0  0
 19 49  1  0  0  0
 20 21  2  0  0  0
 20 25  1  0  0  0
 21 22  1  0  0  0
 21 50  1  0  0  0
 22 23  2  0  0  0
 22 51  1  0  0  0
 23 24  1  0  0  0
 23 26  1  0  0  0
 24 25  2  0  0  0
 24 52  1  0  0  0
 25 53  1  0  0  0
 26 27  1  0  0  0
 27 54  1  0  0  0
 27 55  1  0  0  0
 27 56  1  0  0  0
M  END
> <chembl_id>
CHEMBL203450

> <chembl_pref_name>
None

> <s_m_source_file>
sdf/inactives_sanitized.sdf

> <i_m_source_file_index>
442

> <i_lp_mmshare_version>
49012

> <i_m_ct_stereo_status>
1

> <i_f3d_flags>
0

> <s_epik_input>
W2NIXTFbY0hdW2NIXVtjSF1bY0hdYzFbTkhdQzIoW0NIMl1bQ0gyXVtDSDJdW0NIMl1bQ0gyXTIpQyg9TylbTkhdW0NIMl1bQ0gyXVtOSF1jM1tjSF1bY0hdYyhbY0hdW2NIXTMpT1tDSDNd

> <s_epik_cmdline>
J2VwaWtfcHl0aG9uJywgJy1waHQnLCAnMC41JywgJy1waCcsICc3LjUnLCAnLW50JywgJy1tYScsICcyMDAnLCAnLWltYWUnLCAnPGluZmlsZS5tYWU+JywgJy1vbWFlJywgJzxvdXRmaWxlLm1hZT4n

> <r_lp_tautomer_probability>
1

> <r_epik_Ionization_Penalty>
  0.0025

> <r_epik_Ionization_Penalty_Charging>
  0.0000

> <r_epik_Ionization_Penalty_Neutral>
  0.0025

> <r_epik_State_Penalty>
 -0.0000

> <r_epik_Charging_Adjusted_Penalty>
0

> <i_epik_Tot_Q>
0

> <i_epik_Tot_abs_Q>
0

> <s_lp_Force_Field>
OPLS3e

> <r_lp_Energy>
49.302921

> <b_lp_Chiralities_Consistent>
1

> <s_lp_Variant>
sdf/inactives_sanitized.sdf:442-1

$$$$
sdf/inactives_sanitized.sdf:443
                    3D
 Schrodinger Suite 2020-1.
 56 56  0  0  1  0            999 V2000
   -0.1981    0.1174    0.4242 C   0  0  0  0  0  0
    2.6853    1.8563   -0.9498 C   0  0  0  0  0  0
   -0.9464   -1.2644    0.1897 C   0  0  0  0  0  0
    1.7176    1.4974   -0.0198 N   0  0  0  0  0  0
    1.3109    0.0912    0.1575 C   0  0  1  0  0  0
    2.9077    3.1938   -0.8444 O   0  0  0  0  0  0
   -0.8360    1.1160    0.7818 O   0  0  0  0  0  0
    3.2598    1.0997   -1.7351 O   0  0  0  0  0  0
   -0.3498   -2.2632   -0.2173 O   0  0  0  0  0  0
   -2.2599   -1.1967    0.4769 N   0  0  0  0  0  0
    3.8557    3.9461   -1.6248 C   0  0  0  0  0  0
   -3.1940   -2.3101    0.3342 C   0  0  0  0  0  0
   -4.6753   -3.6751   -1.2311 C   0  0  0  0  0  0
    2.0580   -0.6007    1.3328 C   0  0  0  0  0  0
   -3.6041   -2.6001   -1.1231 C   0  0  0  0  0  0
    3.5166    3.8933   -3.1352 C   0  0  0  0  0  0
    5.3051    3.4659   -1.3647 C   0  0  0  0  0  0
    3.7000    5.3953   -1.1203 C   0  0  0  0  0  0
   -4.3046   -5.0184   -1.3361 C   0  0  0  0  0  0
   -6.0266   -3.3189   -1.2188 C   0  0  0  0  0  0
    3.5755   -0.7596    1.1090 C   0  0  0  0  0  0
    4.2649   -1.5598    2.2278 C   0  0  0  0  0  0
    5.7742   -1.7212    2.0036 C   0  0  0  0  0  0
   -7.0054   -4.3049   -1.3133 C   0  0  0  0  0  0
   -5.2839   -6.0038   -1.4311 C   0  0  0  0  0  0
   -6.6296   -5.6425   -1.4197 C   0  0  0  0  0  0
    1.4376    2.1696    0.6796 H   0  0  0  0  0  0
    1.4869   -0.4643   -0.7674 H   0  0  0  0  0  0
   -2.6414   -0.3217    0.8075 H   0  0  0  0  0  0
   -2.8224   -3.2173    0.8155 H   0  0  0  0  0  0
   -4.0890   -2.0764    0.9123 H   0  0  0  0  0  0
    1.8999   -0.0360    2.2539 H   0  0  0  0  0  0
    1.6394   -1.5938    1.5060 H   0  0  0  0  0  0
   -2.7334   -2.9025   -1.7074 H   0  0  0  0  0  0
   -3.9619   -1.6872   -1.6027 H   0  0  0  0  0  0
    4.1469    4.5750   -3.7075 H   0  0  0  0  0  0
    2.4789    4.1760   -3.3171 H   0  0  0  0  0  0
    3.6580    2.8981   -3.5562 H   0  0  0  0  0  0
    5.4794    2.4576   -1.7398 H   0  0  0  0  0  0
    5.5328    3.4558   -0.2980 H   0  0  0  0  0  0
    6.0323    4.1185   -1.8493 H   0  0  0  0  0  0
    4.3758    6.0765   -1.6389 H   0  0  0  0  0  0
    3.9127    5.4722   -0.0531 H   0  0  0  0  0  0
    2.6840    5.7638   -1.2712 H   0  0  0  0  0  0
   -3.2611   -5.2987   -1.3423 H   0  0  0  0  0  0
   -6.3188   -2.2822   -1.1348 H   0  0  0  0  0  0
    3.7497   -1.2549    0.1524 H   0  0  0  0  0  0
    4.0433    0.2232    1.0396 H   0  0  0  0  0  0
    4.0967   -1.0680    3.1868 H   0  0  0  0  0  0
    3.8094   -2.5479    2.3065 H   0  0  0  0  0  0
    6.2282   -2.2934    2.8131 H   0  0  0  0  0  0
    6.2742   -0.7531    1.9614 H   0  0  0  0  0  0
    5.9814   -2.2462    1.0705 H   0  0  0  0  0  0
   -8.0508   -4.0344   -1.3040 H   0  0  0  0  0  0
   -5.0022   -7.0432   -1.5120 H   0  0  0  0  0  0
   -7.3888   -6.4073   -1.4929 H   0  0  0  0  0  0
  1  3  1  0  0  0
  1  5  1  0  0  0
  1  7  2  0  0  0
  2  4  1  0  0  0
  2  6  1  0  0  0
  2  8  2  0  0  0
  3  9  2  0  0  0
  3 10  1  0  0  0
  4  5  1  0  0  0
  4 27  1  0  0  0
  5 14  1  0  0  0
  5 28  1  0  0  0
  6 11  1  0  0  0
 10 12  1  0  0  0
 10 29  1  0  0  0
 11 16  1  0  0  0
 11 17  1  0  0  0
 11 18  1  0  0  0
 12 15  1  0  0  0
 12 30  1  0  0  0
 12 31  1  0  0  0
 13 15  1  0  0  0
 13 19  2  0  0  0
 13 20  1  0  0  0
 14 21  1  0  0  0
 14 32  1  0  0  0
 14 33  1  0  0  0
 15 34  1  0  0  0
 15 35  1  0  0  0
 16 36  1  0  0  0
 16 37  1  0  0  0
 16 38  1  0  0  0
 17 39  1  0  0  0
 17 40  1  0  0  0
 17 41  1  0  0  0
 18 42  1  0  0  0
 18 43  1  0  0  0
 18 44  1  0  0  0
 19 25  1  0  0  0
 19 45  1  0  0  0
 20 24  2  0  0  0
 20 46  1  0  0  0
 21 22  1  0  0  0
 21 47  1  0  0  0
 21 48  1  0  0  0
 22 23  1  0  0  0
 22 49  1  0  0  0
 22 50  1  0  0  0
 23 51  1  0  0  0
 23 52  1  0  0  0
 23 53  1  0  0  0
 24 26  1  0  0  0
 24 54  1  0  0  0
 25 26  2  0  0  0
 25 55  1  0  0  0
 26 56  1  0  0  0
M  END
> <chembl_id>
CHEMBL159411

> <chembl_pref_name>
None

> <i_m_ct_stereo_status>
1

> <s_m_source_file>
sdf/inactives_sanitized.sdf

> <i_m_source_file_index>
443

> <i_lp_mmshare_version>
49012

> <i_f3d_flags>
0

> <s_epik_input>
W0NIM11DKFtDSDNdKShbQ0gzXSlPQyg9TylbTkhdW0NAQEhdKFtDSDJdW0NIMl1bQ0gyXVtDSDNdKUMoPU8pQyg9TylbTkhdW0NIMl1bQ0gyXWMxW2NIXVtjSF1bY0hdW2NIXVtjSF0x

> <s_epik_cmdline>
J2VwaWtfcHl0aG9uJywgJy1waHQnLCAnMC41JywgJy1waCcsICc3LjUnLCAnLW50JywgJy1tYScsICcyMDAnLCAnLWltYWUnLCAnPGluZmlsZS5tYWU+JywgJy1vbWFlJywgJzxvdXRmaWxlLm1hZT4n

> <r_lp_tautomer_probability>
1

> <r_epik_Ionization_Penalty>
  0.0000

> <r_epik_Ionization_Penalty_Charging>
  0.0000

> <r_epik_Ionization_Penalty_Neutral>
  0.0000

> <r_epik_State_Penalty>
 -0.0000

> <r_epik_Charging_Adjusted_Penalty>
0

> <i_epik_Tot_Q>
0

> <i_epik_Tot_abs_Q>
0

> <s_epik_Chemistry_Notes>
This compound has an ester and may undergo hydrolysis at high or low pH.

> <s_lp_Force_Field>
OPLS3e

> <r_lp_Energy>
24.786108

> <b_lp_Chiralities_Consistent>
1

> <s_lp_Variant>
sdf/inactives_sanitized.sdf:443-1

$$$$
sdf/inactives_sanitized.sdf:444
                    3D
 Schrodinger Suite 2020-1.
 35 36  0  0  1  0            999 V2000
   -0.6367    1.2761    0.0174 C   0  0  0  0  0  0
    0.0265    0.0617   -0.0528 N   0  0  0  0  0  0
   -0.5354   -1.2036   -0.1884 C   0  0  0  0  0  0
   -1.9226   -1.1643   -0.0920 N   0  0  0  0  0  0
   -2.6948   -0.0026   -0.1696 N   0  0  0  0  0  0
   -2.0879    1.1213   -0.0912 C   0  0  0  0  0  0
    0.1175   -2.2432   -0.3355 O   0  0  0  0  0  0
   -2.9138    2.3100   -0.1236 C   0  0  0  0  0  0
   -3.6054    3.2376   -0.1642 N   0  0  0  0  0  0
   -0.0935    2.3764    0.1496 O   0  0  0  0  0  0
    1.5077    0.1211    0.0025 C   0  0  0  0  0  0
    2.0744   -0.0034    1.4307 C   0  0  0  0  0  0
    3.6061    0.0638    1.4600 C   0  0  0  0  0  0
   -2.6813   -2.3631   -0.0391 C   0  0  0  0  0  0
   -2.3874   -3.3582    0.9086 C   0  0  0  0  0  0
   -3.1381   -4.5449    0.9711 C   0  0  0  0  0  0
   -4.1924   -4.7208    0.0731 C   0  0  0  0  0  0
   -4.5004   -3.7405   -0.8678 C   0  0  0  0  0  0
   -3.7518   -2.5672   -0.9236 C   0  0  0  0  0  0
   -2.9113   -5.5687    1.8705 O   0  0  0  0  0  0
   -1.8450   -5.4478    2.8057 C   0  0  0  0  0  0
    1.9519   -0.6527   -0.6265 H   0  0  0  0  0  0
    1.8784    1.0441   -0.4476 H   0  0  0  0  0  0
    1.6746    0.7949    2.0576 H   0  0  0  0  0  0
    1.7542   -0.9466    1.8754 H   0  0  0  0  0  0
    3.9800   -0.0271    2.4802 H   0  0  0  0  0  0
    3.9681    1.0110    1.0586 H   0  0  0  0  0  0
    4.0489   -0.7410    0.8723 H   0  0  0  0  0  0
   -1.5731   -3.1942    1.5986 H   0  0  0  0  0  0
   -4.7799   -5.6269    0.1065 H   0  0  0  0  0  0
   -5.3198   -3.8910   -1.5552 H   0  0  0  0  0  0
   -4.0037   -1.8216   -1.6643 H   0  0  0  0  0  0
   -1.8119   -6.3399    3.4312 H   0  0  0  0  0  0
   -1.9852   -4.5887    3.4635 H   0  0  0  0  0  0
   -0.8802   -5.3611    2.3035 H   0  0  0  0  0  0
  1  6  1  0  0  0
  1  2  1  0  0  0
  1 10  2  0  0  0
  2  3  1  0  0  0
  2 11  1  0  0  0
  3  7  2  0  0  0
  3  4  1  0  0  0
  4 14  1  0  0  0
  4  5  1  0  0  0
  5  6  2  0  0  0
  6  8  1  0  0  0
  8  9  3  0  0  0
 11 12  1  0  0  0
 11 22  1  0  0  0
 11 23  1  0  0  0
 12 13  1  0  0  0
 12 24  1  0  0  0
 12 25  1  0  0  0
 13 26  1  0  0  0
 13 27  1  0  0  0
 13 28  1  0  0  0
 14 15  2  0  0  0
 14 19  1  0  0  0
 15 16  1  0  0  0
 15 29  1  0  0  0
 16 17  2  0  0  0
 16 20  1  0  0  0
 17 18  1  0  0  0
 17 30  1  0  0  0
 18 19  2  0  0  0
 18 31  1  0  0  0
 19 32  1  0  0  0
 20 21  1  0  0  0
 21 33  1  0  0  0
 21 34  1  0  0  0
 21 35  1  0  0  0
M  END
> <chembl_id>
CHEMBL1078890

> <chembl_pref_name>
None

> <s_m_source_file>
sdf/inactives_sanitized.sdf

> <i_m_source_file_index>
444

> <i_lp_mmshare_version>
49012

> <i_m_ct_stereo_status>
1

> <i_f3d_flags>
0

> <s_epik_input>
W0NIM11bQ0gyXVtDSDJdbihjMT1PKWMoPU8pbihuYzFDI04pLWMyW2NIXWMoT1tDSDNdKVtjSF1bY0hdW2NIXTI=

> <s_epik_cmdline>
J2VwaWtfcHl0aG9uJywgJy1waHQnLCAnMC41JywgJy1waCcsICc3LjUnLCAnLW50JywgJy1tYScsICcyMDAnLCAnLWltYWUnLCAnPGluZmlsZS5tYWU+JywgJy1vbWFlJywgJzxvdXRmaWxlLm1hZT4n

> <r_lp_tautomer_probability>
1

> <r_epik_Ionization_Penalty>
  0.0000

> <r_epik_Ionization_Penalty_Charging>
  0.0000

> <r_epik_Ionization_Penalty_Neutral>
  0.0000

> <r_epik_State_Penalty>
 -0.0000

> <r_epik_Charging_Adjusted_Penalty>
1.80616346230733e-12

> <i_epik_Tot_Q>
0

> <i_epik_Tot_abs_Q>
0

> <s_lp_Force_Field>
OPLS3e

> <r_lp_Energy>
57.6087

> <b_lp_Chiralities_Consistent>
1

> <s_lp_Variant>
sdf/inactives_sanitized.sdf:444-1

$$$$
sdf/inactives_sanitized.sdf:445
                    3D
 Schrodinger Suite 2020-1.
 64 66  0  0  1  0            999 V2000
   -0.6598    1.9340    1.0159 C   0  0  0  0  0  0
   -1.3709    3.1391    0.9693 C   0  0  0  0  0  0
   -2.3310    3.3206   -0.0329 C   0  0  0  0  0  0
   -2.5736    2.3167   -0.9695 C   0  0  0  0  0  0
   -1.8536    1.1242   -0.9183 C   0  0  0  0  0  0
   -0.8829    0.9273    0.0687 C   0  0  0  0  0  0
   -0.0863   -0.3780    0.1089 C   0  0  0  0  0  0
    1.4539   -0.1760    0.1891 C   0  0  2  0  0  0
    1.9680    0.6107   -0.9380 N   0  0  0  0  0  0
    2.1725   -1.5392    0.2273 C   0  0  0  0  0  0
    2.2511   -2.2227   -0.7955 O   0  0  0  0  0  0
    2.6520   -1.9282    1.4206 N   0  0  0  0  0  0
    3.3022   -3.2128    1.6610 C   0  0  0  0  0  0
    2.3938   -4.3596    1.4829 C   0  0  0  0  0  0
    1.6808   -5.2600    1.3434 N   0  0  0  0  0  0
    2.4006    1.8840   -0.8850 C   0  0  0  0  0  0
    2.4205    2.5636    0.1423 O   0  0  0  0  0  0
    2.8451    2.4032   -2.1597 C   0  0  0  0  0  0
   -1.1017    4.2120    1.9726 C   0  0  0  0  0  0
   -0.2543    4.1958    2.9760 N   0  0  0  0  0  0
   -0.3726    5.4299    3.6086 N   0  0  0  0  0  0
   -1.2841    6.0896    2.9385 C   0  0  0  0  0  0
   -1.7825    5.3850    1.8920 O   0  0  0  0  0  0
    2.6340    1.9144   -3.4455 C   0  0  0  0  0  0
    3.2175    2.8184   -4.3471 C   0  0  0  0  0  0
    3.7321    3.8338   -3.6834 N   0  0  0  0  0  0
    3.5071    3.5949   -2.3827 N   0  0  0  0  0  0
    3.9570    4.5914   -1.4151 C   0  0  0  0  0  0
   -1.8011    7.4869    3.1888 C   0  0  0  0  0  0
   -3.2117    7.4382    3.3520 O   0  0  0  0  0  0
   -3.7992    8.7079    3.5919 C   0  0  0  0  0  0
    3.3031    2.7597   -5.8798 C   0  0  0  0  0  0
    2.6619    1.4580   -6.4188 C   0  0  0  0  0  0
    4.7843    2.7955   -6.3264 C   0  0  0  0  0  0
    2.5561    3.9664   -6.4949 C   0  0  0  0  0  0
    0.0793    1.7842    1.7891 H   0  0  0  0  0  0
   -2.8960    4.2396   -0.0919 H   0  0  0  0  0  0
   -3.3182    2.4645   -1.7376 H   0  0  0  0  0  0
   -2.0487    0.3580   -1.6544 H   0  0  0  0  0  0
   -0.4449   -0.9607    0.9593 H   0  0  0  0  0  0
   -0.3268   -0.9666   -0.7795 H   0  0  0  0  0  0
    1.6763    0.3402    1.1252 H   0  0  0  0  0  0
    2.0016    0.1236   -1.8217 H   0  0  0  0  0  0
    2.5105   -1.3328    2.2240 H   0  0  0  0  0  0
    4.1646   -3.3395    1.0046 H   0  0  0  0  0  0
    3.6730   -3.2354    2.6854 H   0  0  0  0  0  0
    2.1189    1.0010   -3.7047 H   0  0  0  0  0  0
    4.5540    4.1041   -0.6438 H   0  0  0  0  0  0
    3.0877    5.0638   -0.9568 H   0  0  0  0  0  0
    4.5668    5.3590   -1.8951 H   0  0  0  0  0  0
   -1.3406    7.9131    4.0823 H   0  0  0  0  0  0
   -1.5411    8.1378    2.3522 H   0  0  0  0  0  0
   -4.8772    8.5939    3.7062 H   0  0  0  0  0  0
   -3.6221    9.3926    2.7610 H   0  0  0  0  0  0
   -3.4126    9.1592    4.5070 H   0  0  0  0  0  0
    2.7226    1.3978   -7.5065 H   0  0  0  0  0  0
    1.6071    1.3886   -6.1489 H   0  0  0  0  0  0
    3.1555    0.5716   -6.0170 H   0  0  0  0  0  0
    5.3495    1.9679   -5.8949 H   0  0  0  0  0  0
    5.2790    3.7161   -6.0128 H   0  0  0  0  0  0
    4.8816    2.7281   -7.4109 H   0  0  0  0  0  0
    2.5796    3.9428   -7.5853 H   0  0  0  0  0  0
    2.9935    4.9152   -6.1809 H   0  0  0  0  0  0
    1.5086    3.9828   -6.1900 H   0  0  0  0  0  0
  1  6  2  0  0  0
  1  2  1  0  0  0
  1 36  1  0  0  0
  2 19  1  0  0  0
  2  3  2  0  0  0
  3  4  1  0  0  0
  3 37  1  0  0  0
  4  5  2  0  0  0
  4 38  1  0  0  0
  5  6  1  0  0  0
  5 39  1  0  0  0
  6  7  1  0  0  0
  7  8  1  0  0  0
  7 40  1  0  0  0
  7 41  1  0  0  0
  8  9  1  0  0  0
  8 10  1  0  0  0
  8 42  1  0  0  0
  9 16  1  0  0  0
  9 43  1  0  0  0
 10 11  2  0  0  0
 10 12  1  0  0  0
 12 13  1  0  0  0
 12 44  1  0  0  0
 13 14  1  0  0  0
 13 45  1  0  0  0
 13 46  1  0  0  0
 14 15  3  0  0  0
 16 18  1  0  0  0
 16 17  2  0  0  0
 18 24  2  0  0  0
 18 27  1  0  0  0
 19 20  2  0  0  0
 19 23  1  0  0  0
 20 21  1  0  0  0
 21 22  2  0  0  0
 22 23  1  0  0  0
 22 29  1  0  0  0
 24 25  1  0  0  0
 24 47  1  0  0  0
 25 26  2  0  0  0
 25 32  1  0  0  0
 26 27  1  0  0  0
 27 28  1  0  0  0
 28 48  1  0  0  0
 28 49  1  0  0  0
 28 50  1  0  0  0
 29 30  1  0  0  0
 29 51  1  0  0  0
 29 52  1  0  0  0
 30 31  1  0  0  0
 31 53  1  0  0  0
 31 54  1  0  0  0
 31 55  1  0  0  0
 32 33  1  0  0  0
 32 34  1  0  0  0
 32 35  1  0  0  0
 33 56  1  0  0  0
 33 57  1  0  0  0
 33 58  1  0  0  0
 34 59  1  0  0  0
 34 60  1  0  0  0
 34 61  1  0  0  0
 35 62  1  0  0  0
 35 63  1  0  0  0
 35 64  1  0  0  0
M  END
> <chembl_id>
CHEMBL554065

> <chembl_pref_name>
None

> <i_m_ct_stereo_status>
1

> <s_m_source_file>
sdf/inactives_sanitized.sdf

> <i_m_source_file_index>
445

> <i_lp_mmshare_version>
49012

> <i_f3d_flags>
0

> <s_epik_input>
W0NIM11PW0NIMl1jKG8xKW5uYzEtYzJbY0hdYyhbY0hdW2NIXVtjSF0yKVtDSDJdW0NAQEhdKEMoPU8pW05IXVtDSDJdQyNOKVtOSF1DKD1PKWMzW2NIXWMoQyhbQ0gzXSkoW0NIM10pW0NIM10pbm4zW0NIM10=

> <s_epik_cmdline>
J2VwaWtfcHl0aG9uJywgJy1waHQnLCAnMC41JywgJy1waCcsICc3LjUnLCAnLW50JywgJy1tYScsICcyMDAnLCAnLWltYWUnLCAnPGluZmlsZS5tYWU+JywgJy1vbWFlJywgJzxvdXRmaWxlLm1hZT4n

> <r_lp_tautomer_probability>
1

> <r_epik_Ionization_Penalty>
  0.0000

> <r_epik_Ionization_Penalty_Charging>
  0.0000

> <r_epik_Ionization_Penalty_Neutral>
  0.0000

> <r_epik_State_Penalty>
 -0.0000

> <r_epik_Charging_Adjusted_Penalty>
0

> <i_epik_Tot_Q>
0

> <i_epik_Tot_abs_Q>
0

> <s_lp_Force_Field>
OPLS3e

> <r_lp_Energy>
23.766137

> <b_lp_Chiralities_Consistent>
1

> <s_lp_Variant>
sdf/inactives_sanitized.sdf:445-1

$$$$
sdf/inactives_sanitized.sdf:446
                    3D
 Schrodinger Suite 2020-1.
 78 80  0  0  1  0            999 V2000
    1.9643    0.4852   -2.5308 C   0  0  0  0  0  0
    2.0729   -0.3269   -1.1671 C   0  0  0  0  0  0
   -6.3194   -2.4835    4.6746 C   0  0  0  0  0  0
   -5.5568   -3.6382    4.7866 N   0  0  0  0  0  0
   -6.8925   -2.2683    5.9095 N   0  3  0  0  0  0
    2.4462   -0.2074   -3.5819 N   0  0  0  0  0  0
   -0.8484    1.3402    0.0017 C   0  0  0  0  0  0
   -0.0191    0.2434   -0.1982 N   0  0  0  0  0  0
    1.4291    0.3245    0.0571 C   0  0  1  0  0  0
   -6.5152   -3.2647    6.7885 C   0  0  0  0  0  0
   -5.6874   -4.1241    6.0820 C   0  0  0  0  0  0
    2.4319    0.2374   -4.9807 C   0  0  1  0  0  0
    2.6851   -1.3994   -1.1286 O   0  0  0  0  0  0
    1.4810    1.6178   -2.5721 O   0  0  0  0  0  0
   -0.5011    2.4750    0.3374 O   0  0  0  0  0  0
   -2.1199    0.9625   -0.2215 O   0  0  0  0  0  0
   -6.5325   -1.4584    3.2596 S   0  0  0  0  0  0
   -4.5537    1.1648   -0.2318 C   0  0  0  0  0  0
    3.1704    1.5549   -5.2519 C   0  0  0  0  0  0
   -3.1939    1.8845   -0.0694 C   0  0  0  0  0  0
   -4.7936   -4.2794    3.7268 C   0  0  0  0  0  0
    1.8332   -0.3875    1.3811 C   0  0  0  0  0  0
   -6.2667    1.2900   -1.5342 C   0  0  0  0  0  0
   -5.7597    2.1214   -0.3482 C   0  0  0  0  0  0
   -4.8483    0.7232   -1.6815 C   0  0  0  0  0  0
   -4.7482    0.0214    0.8092 C   0  0  0  0  0  0
    2.9585   -0.8792   -5.8979 C   0  0  0  0  0  0
   -4.8843   -0.6889    3.2907 C   0  0  0  0  0  0
    4.4023    1.8261   -4.6431 C   0  0  0  0  0  0
    2.5946    2.5045   -6.1027 C   0  0  0  0  0  0
   -4.6754    0.4599    2.2893 C   0  0  0  0  0  0
    1.2165    0.2014    2.6689 C   0  0  0  0  0  0
    1.6853    1.6300    3.0039 C   0  0  0  0  0  0
    1.0406    2.1816    4.2821 C   0  0  0  0  0  0
    5.0528    3.0323   -4.8881 C   0  0  0  0  0  0
    3.2446    3.7115   -6.3462 C   0  0  0  0  0  0
    4.4707    3.9698   -5.7381 C   0  0  0  0  0  0
    2.7855   -1.1441   -3.4171 H   0  0  0  0  0  0
   -0.4310   -0.6629   -0.3649 H   0  0  0  0  0  0
    1.7845    1.3563    0.1046 H   0  0  0  0  0  0
   -6.8700   -3.2707    7.8093 H   0  0  0  0  0  0
   -5.1821   -5.0313    6.3815 H   0  0  0  0  0  0
    1.3790    0.3799   -5.2361 H   0  0  0  0  0  0
   -3.0944    2.6728   -0.8179 H   0  0  0  0  0  0
   -3.1406    2.3715    0.9054 H   0  0  0  0  0  0
   -4.7312   -5.3534    3.9075 H   0  0  0  0  0  0
   -3.7854   -3.8644    3.7148 H   0  0  0  0  0  0
   -5.2661   -4.1011    2.7600 H   0  0  0  0  0  0
    1.5332   -1.4363    1.3320 H   0  0  0  0  0  0
    2.9196   -0.3936    1.4871 H   0  0  0  0  0  0
   -6.6320    1.8647   -2.3861 H   0  0  0  0  0  0
   -7.0073    0.5392   -1.2531 H   0  0  0  0  0  0
   -6.4277    2.1587    0.5130 H   0  0  0  0  0  0
   -5.4883    3.1415   -0.6281 H   0  0  0  0  0  0
   -4.7881   -0.3489   -1.8736 H   0  0  0  0  0  0
   -4.2554    1.2495   -2.4326 H   0  0  0  0  0  0
   -5.7092   -0.4640    0.6329 H   0  0  0  0  0  0
   -4.0027   -0.7550    0.6310 H   0  0  0  0  0  0
    2.8644   -0.6043   -6.9491 H   0  0  0  0  0  0
    2.4015   -1.8063   -5.7549 H   0  0  0  0  0  0
    4.0104   -1.0937   -5.7037 H   0  0  0  0  0  0
   -4.6974   -0.3173    4.2994 H   0  0  0  0  0  0
   -4.1402   -1.4646    3.1073 H   0  0  0  0  0  0
    4.8572    1.1031   -3.9817 H   0  0  0  0  0  0
    1.6426    2.3108   -6.5753 H   0  0  0  0  0  0
   -5.4124    1.2403    2.4822 H   0  0  0  0  0  0
   -3.7025    0.9093    2.4903 H   0  0  0  0  0  0
    0.1281    0.1713    2.6043 H   0  0  0  0  0  0
    1.4763   -0.4521    3.5030 H   0  0  0  0  0  0
    2.7703    1.6415    3.1151 H   0  0  0  0  0  0
    1.4578    2.3069    2.1812 H   0  0  0  0  0  0
    1.3991    3.1889    4.4953 H   0  0  0  0  0  0
    1.2742    1.5574    5.1453 H   0  0  0  0  0  0
   -0.0447    2.2306    4.1863 H   0  0  0  0  0  0
    6.0034    3.2410   -4.4195 H   0  0  0  0  0  0
    2.7991    4.4451   -7.0020 H   0  0  0  0  0  0
    4.9741    4.9067   -5.9260 H   0  0  0  0  0  0
   -7.5046   -1.4961    6.1344 H   0  0  0  0  0  0
  1  2  1  0  0  0
  1  6  1  0  0  0
  1 14  2  0  0  0
  2  9  1  0  0  0
  2 13  2  0  0  0
  3 17  1  0  0  0
  3  4  1  0  0  0
  3  5  2  0  0  0
  4 11  1  0  0  0
  4 21  1  0  0  0
  5 10  1  0  0  0
  5 78  1  0  0  0
  6 12  1  0  0  0
  6 38  1  0  0  0
  7  8  1  0  0  0
  7 15  2  0  0  0
  7 16  1  0  0  0
  8  9  1  0  0  0
  8 39  1  0  0  0
  9 22  1  0  0  0
  9 40  1  0  0  0
 10 11  2  0  0  0
 10 41  1  0  0  0
 11 42  1  0  0  0
 12 19  1  0  0  0
 12 27  1  0  0  0
 12 43  1  0  0  0
 16 20  1  0  0  0
 17 28  1  0  0  0
 18 20  1  0  0  0
 18 24  1  0  0  0
 18 25  1  0  0  0
 18 26  1  0  0  0
 19 29  2  0  0  0
 19 30  1  0  0  0
 20 44  1  0  0  0
 20 45  1  0  0  0
 21 46  1  0  0  0
 21 47  1  0  0  0
 21 48  1  0  0  0
 22 32  1  0  0  0
 22 49  1  0  0  0
 22 50  1  0  0  0
 23 25  1  0  0  0
 23 24  1  0  0  0
 23 51  1  0  0  0
 23 52  1  0  0  0
 24 53  1  0  0  0
 24 54  1  0  0  0
 25 55  1  0  0  0
 25 56  1  0  0  0
 26 31  1  0  0  0
 26 57  1  0  0  0
 26 58  1  0  0  0
 27 59  1  0  0  0
 27 60  1  0  0  0
 27 61  1  0  0  0
 28 31  1  0  0  0
 28 62  1  0  0  0
 28 63  1  0  0  0
 29 35  1  0  0  0
 29 64  1  0  0  0
 30 36  2  0  0  0
 30 65  1  0  0  0
 31 66  1  0  0  0
 31 67  1  0  0  0
 32 33  1  0  0  0
 32 68  1  0  0  0
 32 69  1  0  0  0
 33 34  1  0  0  0
 33 70  1  0  0  0
 33 71  1  0  0  0
 34 72  1  0  0  0
 34 73  1  0  0  0
 34 74  1  0  0  0
 35 37  2  0  0  0
 35 75  1  0  0  0
 36 37  1  0  0  0
 36 76  1  0  0  0
 37 77  1  0  0  0
M  CHG  1   5   1
M  END
> <chembl_id>
CHEMBL188106

> <chembl_pref_name>
None

> <i_m_ct_stereo_status>
1

> <s_m_source_file>
sdf/inactives_sanitized.sdf

> <i_m_source_file_index>
446

> <i_lp_mmshare_version>
49012

> <i_f3d_flags>
0

> <s_epik_input>
W2NIXTFbY0hdW2NIXVtjSF1bY0hdYzFbQ0BASF0oW0NIM10pW05IXUMoPU8pQyg9TylbQ0BIXShbQ0gyXVtDSDJdW0NIMl1bQ0gzXSlbTkhdQyg9TylPW0NIMl1DMihbQ0gyXVtDSDJdW0NIMl0yKVtDSDJdW0NIMl1bQ0gyXVNjM24oW0NIM10pW2NIXVtjSF1uMw==

> <s_epik_cmdline>
J2VwaWtfcHl0aG9uJywgJy1waHQnLCAnMC41JywgJy1waCcsICc3LjUnLCAnLW50JywgJy1tYScsICcyMDAnLCAnLWltYWUnLCAnPGluZmlsZS5tYWU+JywgJy1vbWFlJywgJzxvdXRmaWxlLm1hZT4n

> <r_lp_tautomer_probability>
0.99990000499975

> <r_epik_Ionization_Penalty>
  0.2420

> <r_epik_Ionization_Penalty_Charging>
  0.0000

> <r_epik_Ionization_Penalty_Neutral>
  0.2420

> <r_epik_State_Penalty>
  0.2330

> <r_epik_Charging_Adjusted_Penalty>
0.233042721199224

> <i_epik_Tot_Q>
1

> <i_epik_Tot_abs_Q>
1

> <s_epik_Chemistry_Notes>
This compound has an ester and may undergo hydrolysis at high or low pH.

> <s_lp_Force_Field>
OPLS3e

> <r_lp_Energy>
50.37311

> <b_lp_Chiralities_Consistent>
1

> <s_lp_Variant>
sdf/inactives_sanitized.sdf:446-1

$$$$
sdf/inactives_sanitized.sdf:446
                    3D
 Schrodinger Suite 2020-1.
 77 79  0  0  1  0            999 V2000
    1.5762   -2.3617   -1.4351 C   0  0  0  0  0  0
    2.0732   -0.8679   -1.1706 C   0  0  0  0  0  0
   -7.8357    6.8644   -1.3209 C   0  0  0  0  0  0
   -8.2411    8.0183   -1.9605 N   0  0  0  0  0  0
   -8.6826    6.5081   -0.3768 N   0  0  0  0  0  0
    2.0725   -2.8699   -2.5793 N   0  0  0  0  0  0
   -0.7030    1.0233    0.1463 C   0  0  0  0  0  0
    0.0508   -0.1122   -0.1216 N   0  0  0  0  0  0
    1.5155   -0.1167    0.0382 C   0  0  1  0  0  0
   -9.6397    7.4170   -0.3882 C   0  0  0  0  0  0
   -9.4165    8.3797   -1.3548 C   0  0  0  0  0  0
    1.8008   -4.2117   -3.1097 C   0  0  1  0  0  0
    2.9094   -0.3545   -1.9195 O   0  0  0  0  0  0
    0.8158   -2.9451   -0.6610 O   0  0  0  0  0  0
   -0.2733    2.1281    0.4883 O   0  0  0  0  0  0
   -2.0038    0.7246   -0.0260 O   0  0  0  0  0  0
   -6.3560    5.9838   -1.7376 S   0  0  0  0  0  0
   -4.4405    1.1667   -0.1132 C   0  0  0  0  0  0
    2.0360   -4.3314   -4.6209 C   0  0  0  0  0  0
   -3.0113    1.7196    0.1329 C   0  0  0  0  0  0
   -7.5730    8.7147   -3.0477 C   0  0  0  0  0  0
    2.0017   -0.7318    1.3793 C   0  0  0  0  0  0
   -5.4033   -0.6986   -0.6081 C   0  0  0  0  0  0
   -4.6291    0.3542   -1.4149 C   0  0  0  0  0  0
   -4.7740   -0.1241    0.6693 C   0  0  0  0  0  0
   -5.5100    2.2796    0.0938 C   0  0  0  0  0  0
    2.5703   -5.3018   -2.3361 C   0  0  0  0  0  0
   -6.5150    4.5197   -0.6682 C   0  0  0  0  0  0
    1.3220   -5.2955   -5.3421 C   0  0  0  0  0  0
    2.9214   -3.4813   -5.2998 C   0  0  0  0  0  0
   -5.3702    3.5086   -0.8306 C   0  0  0  0  0  0
    1.5607    0.0653    2.6233 C   0  0  0  0  0  0
    2.1278   -0.5044    3.9349 C   0  0  0  0  0  0
    1.6700    0.2807    5.1714 C   0  0  0  0  0  0
    1.4966   -5.4181   -6.7180 C   0  0  0  0  0  0
    3.0962   -3.6042   -6.6757 C   0  0  0  0  0  0
    2.3838   -4.5723   -7.3786 C   0  0  0  0  0  0
    2.6847   -2.2885   -3.1332 H   0  0  0  0  0  0
   -0.4205   -0.9968   -0.2456 H   0  0  0  0  0  0
    1.9027    0.9044   -0.0177 H   0  0  0  0  0  0
  -10.4772    7.3739    0.2925 H   0  0  0  0  0  0
   -9.9659    9.2591   -1.6581 H   0  0  0  0  0  0
    0.7311   -4.3868   -2.9665 H   0  0  0  0  0  0
   -2.8035    2.5313   -0.5651 H   0  0  0  0  0  0
   -2.9504    2.1379    1.1392 H   0  0  0  0  0  0
   -8.1409    9.6029   -3.3272 H   0  0  0  0  0  0
   -7.5030    8.0543   -3.9124 H   0  0  0  0  0  0
   -6.5768    9.0195   -2.7260 H   0  0  0  0  0  0
    1.6375   -1.7543    1.4867 H   0  0  0  0  0  0
    3.0920   -0.7896    1.3736 H   0  0  0  0  0  0
   -5.1477   -1.7357   -0.8282 H   0  0  0  0  0  0
   -6.4860   -0.5698   -0.6538 H   0  0  0  0  0  0
   -5.1978    0.8425   -2.2068 H   0  0  0  0  0  0
   -3.7014   -0.0338   -1.8394 H   0  0  0  0  0  0
   -5.4537   -0.0053    1.5143 H   0  0  0  0  0  0
   -3.9009   -0.6890    1.0011 H   0  0  0  0  0  0
   -6.5066    1.8565   -0.0441 H   0  0  0  0  0  0
   -5.4817    2.6112    1.1330 H   0  0  0  0  0  0
    2.3001   -6.3004   -2.6818 H   0  0  0  0  0  0
    2.3553   -5.2637   -1.2677 H   0  0  0  0  0  0
    3.6483   -5.1885   -2.4588 H   0  0  0  0  0  0
   -6.5645    4.8511    0.3700 H   0  0  0  0  0  0
   -7.4657    4.0315   -0.8867 H   0  0  0  0  0  0
    0.6300   -5.9533   -4.8364 H   0  0  0  0  0  0
    3.4847   -2.7277   -4.7694 H   0  0  0  0  0  0
   -5.3262    3.1863   -1.8714 H   0  0  0  0  0  0
   -4.4275    4.0183   -0.6301 H   0  0  0  0  0  0
    1.8725    1.1057    2.5179 H   0  0  0  0  0  0
    0.4717    0.0726    2.6849 H   0  0  0  0  0  0
    1.8260   -1.5472    4.0429 H   0  0  0  0  0  0
    3.2181   -0.5043    3.8949 H   0  0  0  0  0  0
    2.0904   -0.1469    6.0819 H   0  0  0  0  0  0
    0.5840    0.2652    5.2693 H   0  0  0  0  0  0
    1.9861    1.3231    5.1183 H   0  0  0  0  0  0
    0.9454   -6.1647   -7.2707 H   0  0  0  0  0  0
    3.7818   -2.9515   -7.1956 H   0  0  0  0  0  0
    2.5196   -4.6670   -8.4460 H   0  0  0  0  0  0
  1  2  1  0  0  0
  1  6  1  0  0  0
  1 14  2  0  0  0
  2  9  1  0  0  0
  2 13  2  0  0  0
  3 17  1  0  0  0
  3  4  1  0  0  0
  3  5  2  0  0  0
  4 11  1  0  0  0
  4 21  1  0  0  0
  5 10  1  0  0  0
  6 12  1  0  0  0
  6 38  1  0  0  0
  7  8  1  0  0  0
  7 15  2  0  0  0
  7 16  1  0  0  0
  8  9  1  0  0  0
  8 39  1  0  0  0
  9 22  1  0  0  0
  9 40  1  0  0  0
 10 11  2  0  0  0
 10 41  1  0  0  0
 11 42  1  0  0  0
 12 19  1  0  0  0
 12 27  1  0  0  0
 12 43  1  0  0  0
 16 20  1  0  0  0
 17 28  1  0  0  0
 18 20  1  0  0  0
 18 24  1  0  0  0
 18 25  1  0  0  0
 18 26  1  0  0  0
 19 29  2  0  0  0
 19 30  1  0  0  0
 20 44  1  0  0  0
 20 45  1  0  0  0
 21 46  1  0  0  0
 21 47  1  0  0  0
 21 48  1  0  0  0
 22 32  1  0  0  0
 22 49  1  0  0  0
 22 50  1  0  0  0
 23 25  1  0  0  0
 23 24  1  0  0  0
 23 51  1  0  0  0
 23 52  1  0  0  0
 24 53  1  0  0  0
 24 54  1  0  0  0
 25 55  1  0  0  0
 25 56  1  0  0  0
 26 31  1  0  0  0
 26 57  1  0  0  0
 26 58  1  0  0  0
 27 59  1  0  0  0
 27 60  1  0  0  0
 27 61  1  0  0  0
 28 31  1  0  0  0
 28 62  1  0  0  0
 28 63  1  0  0  0
 29 35  1  0  0  0
 29 64  1  0  0  0
 30 36  2  0  0  0
 30 65  1  0  0  0
 31 66  1  0  0  0
 31 67  1  0  0  0
 32 33  1  0  0  0
 32 68  1  0  0  0
 32 69  1  0  0  0
 33 34  1  0  0  0
 33 70  1  0  0  0
 33 71  1  0  0  0
 34 72  1  0  0  0
 34 73  1  0  0  0
 34 74  1  0  0  0
 35 37  2  0  0  0
 35 75  1  0  0  0
 36 37  1  0  0  0
 36 76  1  0  0  0
 37 77  1  0  0  0
M  END
> <chembl_id>
CHEMBL188106

> <chembl_pref_name>
None

> <i_m_ct_stereo_status>
1

> <s_m_source_file>
sdf/inactives_sanitized.sdf

> <i_m_source_file_index>
446

> <i_lp_mmshare_version>
49012

> <i_f3d_flags>
0

> <s_epik_input>
W2NIXTFbY0hdW2NIXVtjSF1bY0hdYzFbQ0BASF0oW0NIM10pW05IXUMoPU8pQyg9TylbQ0BIXShbQ0gyXVtDSDJdW0NIMl1bQ0gzXSlbTkhdQyg9TylPW0NIMl1DMihbQ0gyXVtDSDJdW0NIMl0yKVtDSDJdW0NIMl1bQ0gyXVNjM24oW0NIM10pW2NIXVtjSF1uMw==

> <s_epik_cmdline>
J2VwaWtfcHl0aG9uJywgJy1waHQnLCAnMC41JywgJy1waCcsICc3LjUnLCAnLW50JywgJy1tYScsICcyMDAnLCAnLWltYWUnLCAnPGluZmlsZS5tYWU+JywgJy1vbWFlJywgJzxvdXRmaWxlLm1hZT4n

> <r_lp_tautomer_probability>
0.99990000499975

> <r_epik_Ionization_Penalty>
  0.6474

> <r_epik_Ionization_Penalty_Charging>
  0.6473

> <r_epik_Ionization_Penalty_Neutral>
  0.0000

> <r_epik_State_Penalty>
  0.6656

> <r_epik_Charging_Adjusted_Penalty>
1.31290696435658

> <i_epik_Tot_Q>
0

> <i_epik_Tot_abs_Q>
0

> <s_epik_Chemistry_Notes>
This compound has an ester and may undergo hydrolysis at high or low pH.

> <s_lp_Force_Field>
OPLS3e

> <r_lp_Energy>
52.57214

> <b_lp_Chiralities_Consistent>
1

> <s_lp_Variant>
sdf/inactives_sanitized.sdf:446-2

$$$$
sdf/inactives_sanitized.sdf:447
                    3D
 Schrodinger Suite 2020-1.
 43 45  0  0  1  0            999 V2000
    3.6572   -0.4284   -2.8698 C   0  0  2  0  0  0
    5.6362   -0.1888   -3.5323 N   0  0  0  0  0  0
    5.0410   -1.0973   -2.6495 C   0  0  0  0  0  0
    4.4562    0.6837   -3.6151 C   0  0  2  0  0  0
    3.0008   -0.0251   -1.6244 N   0  0  0  0  0  0
    2.0441   -0.7315   -0.9983 C   0  0  0  0  0  0
   -0.6269    1.0252   -0.1437 C   0  0  0  0  0  0
    0.0538   -0.0758    0.3629 N   0  0  0  0  0  0
    4.8119    1.8189   -2.8805 O   0  0  0  0  0  0
    1.5208   -0.1432    0.3270 C   0  0  1  0  0  0
    5.4863   -1.9841   -1.9229 O   0  0  0  0  0  0
    1.6058   -1.8099   -1.4030 O   0  0  0  0  0  0
   -0.1199    2.0348   -0.6400 O   0  0  0  0  0  0
   -1.9507    0.8143   -0.0126 O   0  0  0  0  0  0
    6.8096    0.6160   -3.2994 C   0  0  0  0  0  0
    6.2268    1.9153   -2.7260 C   0  0  0  0  0  0
   -2.8899    1.7903   -0.4474 C   0  0  0  0  0  0
   -4.3000    1.2595   -0.2628 C   0  0  0  0  0  0
    2.0099   -0.9449    1.5439 C   0  0  0  0  0  0
   -4.8322    1.1286    1.0226 C   0  0  0  0  0  0
   -5.0624    0.9067   -1.3789 C   0  0  0  0  0  0
   -6.1266    0.6433    1.1910 C   0  0  0  0  0  0
   -6.3567    0.4217   -1.2094 C   0  0  0  0  0  0
   -6.8828    0.2924    0.0743 C   0  0  0  0  0  0
    2.9498   -0.9863   -3.4877 H   0  0  0  0  0  0
    4.1380    0.9835   -4.6152 H   0  0  0  0  0  0
    3.3256    0.8350   -1.2057 H   0  0  0  0  0  0
   -0.4643   -0.8630    0.7249 H   0  0  0  0  0  0
    1.9359    0.8591    0.4653 H   0  0  0  0  0  0
    7.5016    0.1454   -2.5996 H   0  0  0  0  0  0
    7.3783    0.8037   -4.2106 H   0  0  0  0  0  0
    6.6244    2.7809   -3.2568 H   0  0  0  0  0  0
    6.4732    1.9776   -1.6653 H   0  0  0  0  0  0
   -2.7741    2.7122    0.1251 H   0  0  0  0  0  0
   -2.7220    2.0414   -1.4964 H   0  0  0  0  0  0
    3.0988   -1.0062    1.5632 H   0  0  0  0  0  0
    1.6211   -1.9640    1.5344 H   0  0  0  0  0  0
    1.6923   -0.4768    2.4761 H   0  0  0  0  0  0
   -4.2447    1.4001    1.8878 H   0  0  0  0  0  0
   -4.6554    1.0060   -2.3748 H   0  0  0  0  0  0
   -6.5424    0.5393    2.1825 H   0  0  0  0  0  0
   -6.9498    0.1467   -2.0691 H   0  0  0  0  0  0
   -7.8867   -0.0838    0.2049 H   0  0  0  0  0  0
  1  3  1  0  0  0
  1  4  1  0  0  0
  1  5  1  0  0  0
  1 25  1  0  0  0
  2  4  1  0  0  0
  2 15  1  0  0  0
  2  3  1  0  0  0
  3 11  2  0  0  0
  4  9  1  0  0  0
  4 26  1  0  0  0
  5  6  1  0  0  0
  5 27  1  0  0  0
  6 10  1  0  0  0
  6 12  2  0  0  0
  7  8  1  0  0  0
  7 13  2  0  0  0
  7 14  1  0  0  0
  8 10  1  0  0  0
  8 28  1  0  0  0
  9 16  1  0  0  0
 10 19  1  0  0  0
 10 29  1  0  0  0
 14 17  1  0  0  0
 15 16  1  0  0  0
 15 30  1  0  0  0
 15 31  1  0  0  0
 16 32  1  0  0  0
 16 33  1  0  0  0
 17 18  1  0  0  0
 17 34  1  0  0  0
 17 35  1  0  0  0
 18 20  2  0  0  0
 18 21  1  0  0  0
 19 36  1  0  0  0
 19 37  1  0  0  0
 19 38  1  0  0  0
 20 22  1  0  0  0
 20 39  1  0  0  0
 21 23  2  0  0  0
 21 40  1  0  0  0
 22 24  2  0  0  0
 22 41  1  0  0  0
 23 24  1  0  0  0
 23 42  1  0  0  0
 24 43  1  0  0  0
M  END
> <chembl_id>
CHEMBL424441

> <chembl_pref_name>
None

> <i_m_ct_stereo_status>
1

> <s_m_source_file>
sdf/inactives_sanitized.sdf

> <i_m_source_file_index>
447

> <i_lp_mmshare_version>
49012

> <i_f3d_flags>
0

> <s_epik_input>
W0NIMl0xW0NIMl1PW0NAQEhdKE4xMilbQ0BASF0oQzI9TylbTkhdQyg9TylbQ0BIXShbQ0gzXSlbTkhdQyg9TylPW0NIMl1jM1tjSF1bY0hdW2NIXVtjSF1bY0hdMw==

> <s_epik_cmdline>
J2VwaWtfcHl0aG9uJywgJy1waHQnLCAnMC41JywgJy1waCcsICc3LjUnLCAnLW50JywgJy1tYScsICcyMDAnLCAnLWltYWUnLCAnPGluZmlsZS5tYWU+JywgJy1vbWFlJywgJzxvdXRmaWxlLm1hZT4n

> <r_lp_tautomer_probability>
1

> <r_epik_Ionization_Penalty>
  0.0000

> <r_epik_Ionization_Penalty_Charging>
  0.0000

> <r_epik_Ionization_Penalty_Neutral>
  0.0000

> <r_epik_State_Penalty>
 -0.0000

> <r_epik_Charging_Adjusted_Penalty>
0

> <i_epik_Tot_Q>
0

> <i_epik_Tot_abs_Q>
0

> <s_epik_Chemistry_Notes>
This compound has an ester and may undergo hydrolysis at high or low pH. This compound contains an acetal/aminal-like group ( X-CH(R)-Y where X, Y are N, S, or O) that may be acid/base labile, releasing an aldehyde.

> <s_lp_Force_Field>
OPLS3e

> <r_lp_Energy>
30.738705

> <b_lp_Chiralities_Consistent>
1

> <s_lp_Variant>
sdf/inactives_sanitized.sdf:447-1

$$$$
sdf/inactives_sanitized.sdf:448
                    3D
 Schrodinger Suite 2020-1.
 57 60  0  0  1  0            999 V2000
   -0.2733   -3.3790   -2.8610 N   0  0  2  0  0  0
   -1.3362   -2.4071   -2.5604 C   0  0  1  0  0  0
   -2.7681   -3.0145   -2.6010 C   0  0  0  0  0  0
   -2.8948   -4.4302   -1.9928 C   0  0  2  0  0  0
   -1.7106   -5.3377   -2.3699 C   0  0  0  0  0  0
   -0.3412   -4.6645   -2.1665 C   0  0  0  0  0  0
   -1.0366   -1.7522   -1.1869 C   0  0  0  0  0  0
   -1.1985   -2.3840   -0.1409 O   0  0  0  0  0  0
   -0.5577   -0.4930   -1.2048 N   0  0  0  0  0  0
   -4.1200   -5.0293   -2.3635 O   0  0  0  0  0  0
   -0.0749    0.2408   -0.0291 C   0  0  1  0  0  0
    1.4629    0.1709    0.1369 C   0  0  0  0  0  0
    2.0124   -1.2509    0.1426 C   0  0  0  0  0  0
    2.6408   -1.7622   -0.9929 C   0  0  0  0  0  0
    3.0608   -3.0884   -1.0162 C   0  0  0  0  0  0
    2.8619   -3.9256    0.0906 C   0  0  0  0  0  0
    2.2512   -3.3886    1.2330 C   0  0  0  0  0  0
    1.8312   -2.0619    1.2619 C   0  0  0  0  0  0
    4.4715   -9.4726    0.1828 C   0  0  0  0  0  0
    4.7744   -9.5331    1.4997 N   0  0  0  0  0  0
    4.5860   -8.2867    2.2321 C   0  0  0  0  0  0
    4.0921   -7.3654    1.1605 C   0  0  0  0  0  0
    3.7212   -6.0215    1.2073 C   0  0  0  0  0  0
    3.2773   -5.3614    0.0480 C   0  0  0  0  0  0
    3.2243   -6.0930   -1.1527 C   0  0  0  0  0  0
    3.5975   -7.4375   -1.2006 C   0  0  0  0  0  0
    4.0286   -8.0600   -0.0315 C   0  0  0  0  0  0
    4.5438  -10.3786   -0.6481 O   0  0  0  0  0  0
    5.2490  -10.7466    2.1567 C   0  0  0  0  0  0
   -0.5589    1.6303   -0.0750 C   0  0  0  0  0  0
   -0.9389    2.7229   -0.1114 N   0  0  0  0  0  0
    0.6377   -2.9545   -2.7561 H   0  0  0  0  0  0
   -1.2683   -1.5969   -3.2892 H   0  0  0  0  0  0
   -3.4729   -2.3497   -2.0969 H   0  0  0  0  0  0
   -3.1073   -3.0190   -3.6383 H   0  0  0  0  0  0
   -2.9348   -4.3437   -0.9060 H   0  0  0  0  0  0
   -1.7426   -6.2362   -1.7522 H   0  0  0  0  0  0
   -1.7928   -5.7019   -3.3955 H   0  0  0  0  0  0
   -0.1274   -4.5283   -1.1060 H   0  0  0  0  0  0
    0.4458   -5.3036   -2.5673 H   0  0  0  0  0  0
   -0.3644   -0.0706   -2.1011 H   0  0  0  0  0  0
   -4.1317   -5.1357   -3.3175 H   0  0  0  0  0  0
   -0.5357   -0.1611    0.8760 H   0  0  0  0  0  0
    1.9455    0.7400   -0.6597 H   0  0  0  0  0  0
    1.7618    0.6695    1.0603 H   0  0  0  0  0  0
    2.7833   -1.1431   -1.8666 H   0  0  0  0  0  0
    3.5391   -3.4614   -1.9098 H   0  0  0  0  0  0
    2.0708   -4.0040    2.1021 H   0  0  0  0  0  0
    1.3376   -1.6762    2.1420 H   0  0  0  0  0  0
    3.8674   -8.4233    3.0410 H   0  0  0  0  0  0
    5.5257   -7.9584    2.6777 H   0  0  0  0  0  0
    3.7839   -5.4874    2.1440 H   0  0  0  0  0  0
    2.8773   -5.6268   -2.0630 H   0  0  0  0  0  0
    3.5422   -7.9749   -2.1362 H   0  0  0  0  0  0
    5.3388  -11.5889    1.4691 H   0  0  0  0  0  0
    4.5606  -11.0329    2.9523 H   0  0  0  0  0  0
    6.2276  -10.5707    2.6040 H   0  0  0  0  0  0
  1  2  1  0  0  0
  1  6  1  0  0  0
  1 32  1  0  0  0
  2  3  1  0  0  0
  2  7  1  0  0  0
  2 33  1  0  0  0
  3  4  1  0  0  0
  3 34  1  0  0  0
  3 35  1  0  0  0
  4  5  1  0  0  0
  4 10  1  0  0  0
  4 36  1  0  0  0
  5  6  1  0  0  0
  5 37  1  0  0  0
  5 38  1  0  0  0
  6 39  1  0  0  0
  6 40  1  0  0  0
  7  8  2  0  0  0
  7  9  1  0  0  0
  9 11  1  0  0  0
  9 41  1  0  0  0
 10 42  1  0  0  0
 11 12  1  0  0  0
 11 30  1  0  0  0
 11 43  1  0  0  0
 12 13  1  0  0  0
 12 44  1  0  0  0
 12 45  1  0  0  0
 13 14  2  0  0  0
 13 18  1  0  0  0
 14 15  1  0  0  0
 14 46  1  0  0  0
 15 16  2  0  0  0
 15 47  1  0  0  0
 16 17  1  0  0  0
 16 24  1  0  0  0
 17 18  2  0  0  0
 17 48  1  0  0  0
 18 49  1  0  0  0
 19 20  1  0  0  0
 19 27  1  0  0  0
 19 28  2  0  0  0
 20 21  1  0  0  0
 20 29  1  0  0  0
 21 22  1  0  0  0
 21 50  1  0  0  0
 21 51  1  0  0  0
 22 23  2  0  0  0
 22 27  1  0  0  0
 23 24  1  0  0  0
 23 52  1  0  0  0
 24 25  2  0  0  0
 25 26  1  0  0  0
 25 53  1  0  0  0
 26 27  2  0  0  0
 26 54  1  0  0  0
 29 55  1  0  0  0
 29 56  1  0  0  0
 29 57  1  0  0  0
 30 31  3  0  0  0
M  END
> <chembl_id>
CHEMBL3261923

> <chembl_pref_name>
None

> <i_m_ct_stereo_status>
1

> <s_m_source_file>
sdf/inactives_sanitized.sdf

> <i_m_source_file_index>
448

> <i_lp_mmshare_version>
49012

> <i_f3d_flags>
0

> <s_epik_input>
W0NIMl0xW0NAQEhdKFtPSF0pW0NIMl1bQ0gyXVtOSF1bQ0BASF0xQyg9TylbTkhdW0NASF0oQyNOKVtDSDJdYzJbY0hdW2NIXWMoW2NIXVtjSF0yKS1jKFtjSF0zKVtjSF1bY0hdYyhjMzQpQyg9TylOKFtDSDJdNClbQ0gzXQ==

> <s_epik_cmdline>
J2VwaWtfcHl0aG9uJywgJy1waHQnLCAnMC41JywgJy1waCcsICc3LjUnLCAnLW50JywgJy1tYScsICcyMDAnLCAnLWltYWUnLCAnPGluZmlsZS5tYWU+JywgJy1vbWFlJywgJzxvdXRmaWxlLm1hZT4n

> <r_epik_Ionization_Penalty>
  0.1546

> <r_epik_Ionization_Penalty_Charging>
  0.0000

> <r_epik_Ionization_Penalty_Neutral>
  0.1546

> <r_epik_State_Penalty>
  0.1438

> <r_epik_Charging_Adjusted_Penalty>
0.143848342138556

> <i_epik_Tot_Q>
0

> <i_epik_Tot_abs_Q>
0

> <s_lp_Force_Field>
OPLS3e

> <r_lp_Energy>
28.8274

> <b_lp_Chiralities_Consistent>
1

> <s_lp_Variant>
sdf/inactives_sanitized.sdf:448-1

$$$$
sdf/inactives_sanitized.sdf:449
                    3D
 Schrodinger Suite 2020-1.
 58 58  0  0  1  0            999 V2000
    5.9131   -4.6039   -4.1455 O   0  0  0  0  0  0
    5.2341   -3.4622   -4.7670 S   0  0  0  0  0  0
    3.9494   -3.6555   -5.4491 O   0  0  0  0  0  0
   -3.9047    1.7848    3.4201 C   0  0  0  0  0  0
   -3.3296   -0.3700    2.5358 O   0  0  0  0  0  0
   -2.7591    2.0076    4.4006 C   0  0  0  0  0  0
   -3.4923    0.8270    2.2959 C   0  0  0  0  0  0
   -3.3124    1.3694    1.0785 N   0  0  0  0  0  0
   -2.8373    0.6544   -0.1142 C   0  0  2  0  0  0
   -0.5626    1.1570    0.5051 O   0  0  0  0  0  0
   -1.3347    0.3145    0.0436 C   0  0  0  0  0  0
   -3.2061    1.4022   -1.4518 C   0  0  0  0  0  0
   -4.7366    1.6477   -1.5187 C   0  0  0  0  0  0
   -0.9635   -0.9176   -0.3438 N   0  0  0  0  0  0
    0.4042   -1.4308   -0.2620 C   0  0  0  0  0  0
    0.7440   -0.5527   -2.4874 O   0  0  0  0  0  0
    1.2605   -0.9218   -1.4314 C   0  0  0  0  0  0
    2.5891   -0.9417   -1.2342 N   0  0  0  0  0  0
   -1.7224    2.8934    4.0836 C   0  0  0  0  0  0
   -0.6586    3.0775    4.9677 C   0  0  0  0  0  0
   -0.6232    2.3739    6.1722 C   0  0  0  0  0  0
   -1.6490    1.4831    6.4906 C   0  0  0  0  0  0
   -2.7126    1.2983    5.6059 C   0  0  0  0  0  0
   -1.6005    0.6061    7.9763 Cl  0  0  0  0  0  0
    3.5844   -0.5465   -2.2283 C   0  0  0  0  0  0
    3.8471   -1.6186   -3.2744 C   0  0  0  0  0  0
    0.6150    4.1719    4.5689 Cl  0  0  0  0  0  0
   -2.8170    0.5673   -2.6991 C   0  0  0  0  0  0
   -2.5068    2.7849   -1.5488 C   0  0  0  0  0  0
    5.0406   -2.1976   -3.5005 C   0  0  0  0  0  0
    6.4301   -2.6620   -5.9861 C   0  0  0  0  0  0
   -4.2221    2.7463    3.0117 H   0  0  0  0  0  0
   -4.7728    1.3662    3.9319 H   0  0  0  0  0  0
   -3.4625    2.3602    0.9562 H   0  0  0  0  0  0
   -3.3730   -0.2978   -0.1294 H   0  0  0  0  0  0
   -5.0269    2.1179   -2.4596 H   0  0  0  0  0  0
   -5.0829    2.3083   -0.7227 H   0  0  0  0  0  0
   -5.2957    0.7140   -1.4424 H   0  0  0  0  0  0
   -1.6605   -1.5449   -0.7179 H   0  0  0  0  0  0
    0.8578   -1.1528    0.6912 H   0  0  0  0  0  0
    0.3721   -2.5200   -0.2955 H   0  0  0  0  0  0
    2.9444   -1.2937   -0.3569 H   0  0  0  0  0  0
   -1.7409    3.4344    3.1483 H   0  0  0  0  0  0
    0.2006    2.5157    6.8565 H   0  0  0  0  0  0
   -3.4998    0.6009    5.8546 H   0  0  0  0  0  0
    3.2705    0.3765   -2.7201 H   0  0  0  0  0  0
    4.5053   -0.3060   -1.6941 H   0  0  0  0  0  0
    2.9880   -1.9123   -3.8602 H   0  0  0  0  0  0
   -3.2836   -0.4185   -2.6851 H   0  0  0  0  0  0
   -1.7396    0.4271   -2.7790 H   0  0  0  0  0  0
   -3.1301    1.0575   -3.6221 H   0  0  0  0  0  0
   -2.7898    3.3091   -2.4628 H   0  0  0  0  0  0
   -1.4202    2.6950   -1.5694 H   0  0  0  0  0  0
   -2.7726    3.4363   -0.7152 H   0  0  0  0  0  0
    5.9294   -1.9427   -2.9432 H   0  0  0  0  0  0
    6.6232   -3.3622   -6.7983 H   0  0  0  0  0  0
    7.3608   -2.4268   -5.4704 H   0  0  0  0  0  0
    5.9801   -1.7514   -6.3808 H   0  0  0  0  0  0
  1  2  2  0  0  0
  2  3  2  0  0  0
  2 30  1  0  0  0
  2 31  1  0  0  0
  4  7  1  0  0  0
  4  6  1  0  0  0
  4 32  1  0  0  0
  4 33  1  0  0  0
  5  7  2  0  0  0
  6 19  2  0  0  0
  6 23  1  0  0  0
  7  8  1  0  0  0
  8  9  1  0  0  0
  8 34  1  0  0  0
  9 11  1  0  0  0
  9 12  1  0  0  0
  9 35  1  0  0  0
 10 11  2  0  0  0
 11 14  1  0  0  0
 12 13  1  0  0  0
 12 28  1  0  0  0
 12 29  1  0  0  0
 13 36  1  0  0  0
 13 37  1  0  0  0
 13 38  1  0  0  0
 14 15  1  0  0  0
 14 39  1  0  0  0
 15 17  1  0  0  0
 15 40  1  0  0  0
 15 41  1  0  0  0
 16 17  2  0  0  0
 17 18  1  0  0  0
 18 25  1  0  0  0
 18 42  1  0  0  0
 19 20  1  0  0  0
 19 43  1  0  0  0
 20 21  2  0  0  0
 20 27  1  0  0  0
 21 22  1  0  0  0
 21 44  1  0  0  0
 22 23  2  0  0  0
 22 24  1  0  0  0
 23 45  1  0  0  0
 25 26  1  0  0  0
 25 46  1  0  0  0
 25 47  1  0  0  0
 26 30  2  0  0  0
 26 48  1  0  0  0
 28 49  1  0  0  0
 28 50  1  0  0  0
 28 51  1  0  0  0
 29 52  1  0  0  0
 29 53  1  0  0  0
 29 54  1  0  0  0
 30 55  1  0  0  0
 31 56  1  0  0  0
 31 57  1  0  0  0
 31 58  1  0  0  0
M  END
> <chembl_id>
CHEMBL3354497

> <chembl_pref_name>
None

> <i_m_ct_stereo_status>
1

> <s_m_source_file>
sdf/inactives_sanitized.sdf

> <i_m_source_file_index>
449

> <i_lp_mmshare_version>
49012

> <i_f3d_flags>
0

> <s_epik_input>
Tz1TKD1PKShbQ0gzXSlcW0NIXT1bQ0hdXFtDSDJdW05IXUMoPU8pW0NIMl1bTkhdQyg9TylbQ0BIXShDKFtDSDNdKShbQ0gzXSlbQ0gzXSlbTkhdQyg9TylbQ0gyXWMxW2NIXWMoQ2wpW2NIXWMoQ2wpW2NIXTE=

> <s_epik_cmdline>
J2VwaWtfcHl0aG9uJywgJy1waHQnLCAnMC41JywgJy1waCcsICc3LjUnLCAnLW50JywgJy1tYScsICcyMDAnLCAnLWltYWUnLCAnPGluZmlsZS5tYWU+JywgJy1vbWFlJywgJzxvdXRmaWxlLm1hZT4n

> <r_lp_tautomer_probability>
1

> <r_epik_Ionization_Penalty>
  0.0000

> <r_epik_Ionization_Penalty_Charging>
  0.0000

> <r_epik_Ionization_Penalty_Neutral>
  0.0000

> <r_epik_State_Penalty>
 -0.0000

> <r_epik_Charging_Adjusted_Penalty>
0

> <i_epik_Tot_Q>
0

> <i_epik_Tot_abs_Q>
0

> <s_lp_Force_Field>
OPLS3e

> <r_lp_Energy>
6.587489

> <b_lp_Chiralities_Consistent>
1

> <s_lp_Variant>
sdf/inactives_sanitized.sdf:449-1

$$$$
sdf/inactives_sanitized.sdf:450
                    3D
 Schrodinger Suite 2020-1.
 34 33  0  0  1  0            999 V2000
   -1.2310    1.7568   -0.9048 C   0  0  0  0  0  0
   -0.6631    1.2735    0.2679 N   0  0  0  0  0  0
   -1.7472    2.9908   -0.6579 O   0  0  0  0  0  0
   -1.2579    1.1796   -1.9935 O   0  0  0  0  0  0
   -2.4006    3.8311   -1.6281 C   0  0  0  0  0  0
    0.4779   -1.1756    2.3710 O   0  0  0  0  0  0
   -0.3142   -0.5852    1.6364 C   0  0  0  0  0  0
    0.0584   -0.0060    0.2858 C   0  0  2  0  0  0
    1.5947    0.1264    0.0916 C   0  0  0  0  0  0
    3.4300    0.6600   -1.3723 O   0  0  0  0  0  0
    2.0128    0.6819   -1.2808 C   0  0  0  0  0  0
   -3.6857    3.1648   -2.1792 C   0  0  0  0  0  0
   -1.4384    4.2161   -2.7794 C   0  0  0  0  0  0
   -2.7843    5.1002   -0.8396 C   0  0  0  0  0  0
    3.9230    1.1370   -2.6150 C   0  0  0  0  0  0
   -0.5445    1.9031    1.0482 H   0  0  0  0  0  0
   -1.3626   -0.4755    1.9185 H   0  0  0  0  0  0
   -0.3415   -0.6897   -0.4666 H   0  0  0  0  0  0
    2.0152    0.7719    0.8653 H   0  0  0  0  0  0
    2.0638   -0.8514    0.2172 H   0  0  0  0  0  0
    1.6509    1.7044   -1.4027 H   0  0  0  0  0  0
    1.5752    0.0750   -2.0758 H   0  0  0  0  0  0
   -4.2531    3.8540   -2.8058 H   0  0  0  0  0  0
   -4.3421    2.8426   -1.3699 H   0  0  0  0  0  0
   -3.4681    2.2861   -2.7861 H   0  0  0  0  0  0
   -1.1755    3.3607   -3.4015 H   0  0  0  0  0  0
   -0.5067    4.6320   -2.3939 H   0  0  0  0  0  0
   -1.8840    4.9645   -3.4360 H   0  0  0  0  0  0
   -3.2939    5.8280   -1.4724 H   0  0  0  0  0  0
   -1.9053    5.5911   -0.4187 H   0  0  0  0  0  0
   -3.4501    4.8674   -0.0073 H   0  0  0  0  0  0
    5.0119    1.0897   -2.6160 H   0  0  0  0  0  0
    3.6333    2.1749   -2.7869 H   0  0  0  0  0  0
    3.5620    0.5301   -3.4467 H   0  0  0  0  0  0
  1  2  1  0  0  0
  1  3  1  0  0  0
  1  4  2  0  0  0
  2  8  1  0  0  0
  2 16  1  0  0  0
  3  5  1  0  0  0
  5 12  1  0  0  0
  5 13  1  0  0  0
  5 14  1  0  0  0
  6  7  2  0  0  0
  7  8  1  0  0  0
  7 17  1  0  0  0
  8  9  1  0  0  0
  8 18  1  0  0  0
  9 11  1  0  0  0
  9 19  1  0  0  0
  9 20  1  0  0  0
 10 11  1  0  0  0
 10 15  1  0  0  0
 11 21  1  0  0  0
 11 22  1  0  0  0
 12 23  1  0  0  0
 12 24  1  0  0  0
 12 25  1  0  0  0
 13 26  1  0  0  0
 13 27  1  0  0  0
 13 28  1  0  0  0
 14 29  1  0  0  0
 14 30  1  0  0  0
 14 31  1  0  0  0
 15 32  1  0  0  0
 15 33  1  0  0  0
 15 34  1  0  0  0
M  END
> <chembl_id>
CHEMBL92991

> <chembl_pref_name>
None

> <i_m_ct_stereo_status>
1

> <s_m_source_file>
sdf/inactives_sanitized.sdf

> <i_m_source_file_index>
450

> <i_lp_mmshare_version>
49012

> <i_f3d_flags>
0

> <s_epik_input>
W0NIM11DKFtDSDNdKShbQ0gzXSlPQyg9TylbTkhdW0NASF0oW0NIXT1PKVtDSDJdW0NIMl1PW0NIM10=

> <s_epik_cmdline>
J2VwaWtfcHl0aG9uJywgJy1waHQnLCAnMC41JywgJy1waCcsICc3LjUnLCAnLW50JywgJy1tYScsICcyMDAnLCAnLWltYWUnLCAnPGluZmlsZS5tYWU+JywgJy1vbWFlJywgJzxvdXRmaWxlLm1hZT4n

> <r_lp_tautomer_probability>
1

> <r_epik_Ionization_Penalty>
  0.0015

> <r_epik_Ionization_Penalty_Charging>
  0.0000

> <r_epik_Ionization_Penalty_Neutral>
  0.0015

> <r_epik_State_Penalty>
 -0.0000

> <r_epik_Charging_Adjusted_Penalty>
0

> <i_epik_Tot_Q>
0

> <i_epik_Tot_abs_Q>
0

> <s_epik_Chemistry_Notes>
This compound has an ester and may undergo hydrolysis at high or low pH.

> <s_lp_Force_Field>
OPLS3e

> <r_lp_Energy>
10.041974

> <b_lp_Chiralities_Consistent>
1

> <s_lp_Variant>
sdf/inactives_sanitized.sdf:450-1

$$$$
sdf/inactives_sanitized.sdf:451
                    3D
 Schrodinger Suite 2020-1.
 48 50  0  0  1  0            999 V2000
   -4.1339    4.9607   -1.1364 C   0  0  0  0  0  0
   -2.7930    4.9383   -0.6590 O   0  0  0  0  0  0
   -2.1446    3.7252   -0.5289 C   0  0  0  0  0  0
   -2.7183    2.4833   -0.8388 C   0  0  0  0  0  0
   -1.9855    1.3105   -0.6771 C   0  0  0  0  0  0
   -0.6614    1.3527   -0.2201 C   0  0  0  0  0  0
   -0.1050    2.5945    0.1183 C   0  0  0  0  0  0
   -0.8372    3.7664   -0.0474 C   0  0  0  0  0  0
    0.0960    0.0672   -0.0211 C   0  0  0  0  0  0
   -0.5249   -0.9822    0.1683 O   0  0  0  0  0  0
    1.5981    0.0394   -0.0376 C   0  0  0  0  0  0
    2.2876   -0.9346    0.6937 C   0  0  0  0  0  0
    3.6771   -0.9915    0.6572 C   0  0  0  0  0  0
    4.3933   -0.0842   -0.1198 C   0  0  0  0  0  0
    3.7434    0.8965   -0.8930 C   0  0  0  0  0  0
    2.3365    0.9156   -0.8471 C   0  0  0  0  0  0
    4.5069    1.8735   -1.7265 C   0  0  0  0  0  0
    5.7896    1.7688   -1.7761 N   0  0  0  0  0  0
    6.4777    2.6828   -2.5085 N   0  0  0  0  0  0
    7.8313    2.6782   -2.6661 C   0  0  0  0  0  0
    8.5732    3.8400   -3.5821 S   0  0  0  0  0  0
    8.5617    1.7074   -2.0639 N   0  0  0  0  0  0
    3.7472    2.9116   -2.4692 C   0  0  0  0  0  0
    3.1544    3.9773   -1.7804 C   0  0  0  0  0  0
    2.4327    4.9467   -2.4712 C   0  0  0  0  0  0
    2.3061    4.8582   -3.8556 C   0  0  0  0  0  0
    1.5976    5.8130   -4.5352 O   0  0  0  0  0  0
    2.8954    3.8059   -4.5534 C   0  0  0  0  0  0
    3.6135    2.8344   -3.8611 C   0  0  0  0  0  0
   -4.4823    5.9923   -1.1825 H   0  0  0  0  0  0
   -4.8043    4.4156   -0.4700 H   0  0  0  0  0  0
   -4.2087    4.5421   -2.1412 H   0  0  0  0  0  0
   -3.7312    2.4074   -1.2039 H   0  0  0  0  0  0
   -2.4580    0.3698   -0.9233 H   0  0  0  0  0  0
    0.8939    2.6719    0.5220 H   0  0  0  0  0  0
   -0.3872    4.7145    0.2086 H   0  0  0  0  0  0
    1.7550   -1.6496    1.3053 H   0  0  0  0  0  0
    4.2013   -1.7390    1.2341 H   0  0  0  0  0  0
    5.4711   -0.1608   -0.1109 H   0  0  0  0  0  0
    1.7946    1.6192   -1.4615 H   0  0  0  0  0  0
    5.9177    3.3944   -2.9561 H   0  0  0  0  0  0
    8.0971    1.0002   -1.5129 H   0  0  0  0  0  0
    9.5652    1.6943   -2.1746 H   0  0  0  0  0  0
    3.2451    4.0563   -0.7059 H   0  0  0  0  0  0
    1.9746    5.7629   -1.9314 H   0  0  0  0  0  0
    1.5782    5.6599   -5.4825 H   0  0  0  0  0  0
    2.7980    3.7370   -5.6271 H   0  0  0  0  0  0
    4.0639    2.0205   -4.4118 H   0  0  0  0  0  0
  1  2  1  0  0  0
  1 30  1  0  0  0
  1 31  1  0  0  0
  1 32  1  0  0  0
  2  3  1  0  0  0
  3  4  2  0  0  0
  3  8  1  0  0  0
  4  5  1  0  0  0
  4 33  1  0  0  0
  5  6  2  0  0  0
  5 34  1  0  0  0
  6  7  1  0  0  0
  6  9  1  0  0  0
  7  8  2  0  0  0
  7 35  1  0  0  0
  8 36  1  0  0  0
  9 10  2  0  0  0
  9 11  1  0  0  0
 11 12  2  0  0  0
 11 16  1  0  0  0
 12 13  1  0  0  0
 12 37  1  0  0  0
 13 14  2  0  0  0
 13 38  1  0  0  0
 14 15  1  0  0  0
 14 39  1  0  0  0
 15 16  2  0  0  0
 15 17  1  0  0  0
 16 40  1  0  0  0
 17 18  2  0  0  0
 17 23  1  0  0  0
 18 19  1  0  0  0
 19 20  1  0  0  0
 19 41  1  0  0  0
 20 21  2  0  0  0
 20 22  1  0  0  0
 22 42  1  0  0  0
 22 43  1  0  0  0
 23 24  2  0  0  0
 23 29  1  0  0  0
 24 25  1  0  0  0
 24 44  1  0  0  0
 25 26  2  0  0  0
 25 45  1  0  0  0
 26 27  1  0  0  0
 26 28  1  0  0  0
 27 46  1  0  0  0
 28 29  2  0  0  0
 28 47  1  0  0  0
 29 48  1  0  0  0
M  END
> <chembl_id>
CHEMBL3639978

> <chembl_pref_name>
None

> <s_m_source_file>
sdf/inactives_sanitized.sdf

> <i_m_source_file_index>
451

> <i_lp_mmshare_version>
49012

> <i_m_ct_stereo_status>
1

> <i_f3d_flags>
0

> <s_epik_input>
W0NIM11PYzFbY0hdW2NIXWMoW2NIXVtjSF0xKUMoPU8pYzJbY0hdW2NIXVtjSF1jKFtjSF0yKS9DKD1OL1tOSF1DKD1TKVtOSDJdKWMzW2NIXVtjSF1jKFtPSF0pW2NIXVtjSF0z

> <s_epik_cmdline>
J2VwaWtfcHl0aG9uJywgJy1waHQnLCAnMC41JywgJy1waCcsICc3LjUnLCAnLW50JywgJy1tYScsICcyMDAnLCAnLWltYWUnLCAnPGluZmlsZS5tYWU+JywgJy1vbWFlJywgJzxvdXRmaWxlLm1hZT4n

> <r_epik_Ionization_Penalty>
  0.0192

> <r_epik_Ionization_Penalty_Charging>
  0.0000

> <r_epik_Ionization_Penalty_Neutral>
  0.0192

> <r_epik_State_Penalty>
  0.0153

> <r_epik_Charging_Adjusted_Penalty>
0.0152843442793875

> <i_epik_Tot_Q>
0

> <i_epik_Tot_abs_Q>
0

> <s_epik_Chemistry_Notes>
This compound has an imine and may undergo hydrolysis.

> <s_lp_Force_Field>
OPLS3e

> <r_lp_Energy>
59.138825

> <b_lp_Chiralities_Consistent>
1

> <s_lp_Variant>
sdf/inactives_sanitized.sdf:451-1

$$$$
sdf/inactives_sanitized.sdf:452
                    3D
 Schrodinger Suite 2020-1.
 70 72  0  0  1  0            999 V2000
   -3.5840   -6.8378    0.1065 C   0  0  0  0  0  0
   -2.6198   -5.7672   -0.4243 C   0  0  0  0  0  0
   -1.3620   -6.3985   -1.0544 C   0  0  0  0  0  0
   -2.2709   -4.9359    0.6853 O   0  0  0  0  0  0
   -1.6990   -3.6911    0.4918 C   0  0  0  0  0  0
   -1.2861   -3.0181    1.6415 C   0  0  0  0  0  0
   -0.6778   -1.7695    1.5534 C   0  0  0  0  0  0
   -0.4765   -1.1709    0.3058 C   0  0  0  0  0  0
   -0.9123   -1.8302   -0.8482 C   0  0  0  0  0  0
   -1.5170   -3.0807   -0.7586 C   0  0  0  0  0  0
    0.2249    0.1165    0.2061 C   0  0  0  0  0  0
   -0.5929    1.1083    0.2041 N   0  0  0  0  0  0
   -0.1351    2.3612    0.0262 N   0  0  0  0  0  0
   -0.9206    3.4749    0.0314 C   0  0  0  0  0  0
   -0.2533    4.9718   -0.1988 S   0  0  0  0  0  0
   -2.2553    3.3409    0.2305 N   0  0  0  0  0  0
    1.7371    0.0861    0.1121 C   0  0  0  0  0  0
    2.5736    1.2195    0.1146 C   0  0  0  0  0  0
    3.9578    1.1098    0.0286 C   0  0  0  0  0  0
    4.5591   -0.1394   -0.0575 C   0  0  0  0  0  0
    3.7923   -1.3129   -0.0560 C   0  0  0  0  0  0
    2.3951   -1.1603    0.0321 C   0  0  0  0  0  0
    4.4259   -2.6631   -0.1403 C   0  0  0  0  0  0
    3.6656   -3.7019   -0.1139 N   0  0  0  0  0  0
    4.2412   -4.9279   -0.2067 N   0  0  0  0  0  0
    3.5454   -6.0998   -0.1806 C   0  0  0  0  0  0
    4.3358   -7.5483   -0.3037 S   0  0  0  0  0  0
    2.1956   -6.0629   -0.0513 N   0  0  0  0  0  0
    5.9017   -2.7466   -0.2393 C   0  0  0  0  0  0
    6.5360   -2.5834   -1.4740 C   0  0  0  0  0  0
    7.9218   -2.6731   -1.5661 C   0  0  0  0  0  0
    8.6955   -2.9289   -0.4339 C   0  0  0  0  0  0
   10.0630   -2.9989   -0.6328 O   0  0  0  0  0  0
   10.9500   -3.3159    0.4427 C   0  0  0  0  0  0
   12.3515   -2.8578    0.0141 C   0  0  0  0  0  0
   10.9172   -4.8252    0.7531 C   0  0  0  0  0  0
    8.0579   -3.0888    0.8060 C   0  0  0  0  0  0
    6.6718   -3.0000    0.8994 C   0  0  0  0  0  0
   -3.9091   -7.5074   -0.6904 H   0  0  0  0  0  0
   -4.4764   -6.3820    0.5364 H   0  0  0  0  0  0
   -3.1164   -7.4458    0.8819 H   0  0  0  0  0  0
   -3.1674   -5.1940   -1.1738 H   0  0  0  0  0  0
   -1.6266   -7.0507   -1.8871 H   0  0  0  0  0  0
   -0.8142   -6.9967   -0.3256 H   0  0  0  0  0  0
   -0.6754   -5.6459   -1.4409 H   0  0  0  0  0  0
   -1.4251   -3.4737    2.6110 H   0  0  0  0  0  0
   -0.3492   -1.2788    2.4587 H   0  0  0  0  0  0
   -0.7668   -1.3855   -1.8227 H   0  0  0  0  0  0
   -1.8272   -3.5599   -1.6736 H   0  0  0  0  0  0
    0.8615    2.4461   -0.1122 H   0  0  0  0  0  0
   -2.6500    2.4219    0.3706 H   0  0  0  0  0  0
   -2.8449    4.1604    0.2441 H   0  0  0  0  0  0
    2.2061    2.2262    0.2007 H   0  0  0  0  0  0
    4.5688    2.0005    0.0348 H   0  0  0  0  0  0
    5.6372   -0.1721   -0.1185 H   0  0  0  0  0  0
    1.8024   -2.0623    0.0307 H   0  0  0  0  0  0
    5.2472   -4.9352   -0.2980 H   0  0  0  0  0  0
    1.7252   -5.1732    0.0328 H   0  0  0  0  0  0
    1.6698   -6.9246   -0.0315 H   0  0  0  0  0  0
    5.9596   -2.3883   -2.3674 H   0  0  0  0  0  0
    8.3995   -2.5455   -2.5265 H   0  0  0  0  0  0
   10.6910   -2.7439    1.3349 H   0  0  0  0  0  0
   13.0885   -3.0593    0.7921 H   0  0  0  0  0  0
   12.3692   -1.7857   -0.1846 H   0  0  0  0  0  0
   12.6771   -3.3678   -0.8934 H   0  0  0  0  0  0
   11.6026   -5.0726    1.5641 H   0  0  0  0  0  0
   11.2084   -5.4131   -0.1181 H   0  0  0  0  0  0
    9.9253   -5.1593    1.0553 H   0  0  0  0  0  0
    8.6148   -3.2851    1.7087 H   0  0  0  0  0  0
    6.1998   -3.1305    1.8632 H   0  0  0  0  0  0
  1  2  1  0  0  0
  1 39  1  0  0  0
  1 40  1  0  0  0
  1 41  1  0  0  0
  2  3  1  0  0  0
  2  4  1  0  0  0
  2 42  1  0  0  0
  3 43  1  0  0  0
  3 44  1  0  0  0
  3 45  1  0  0  0
  4  5  1  0  0  0
  5  6  2  0  0  0
  5 10  1  0  0  0
  6  7  1  0  0  0
  6 46  1  0  0  0
  7  8  2  0  0  0
  7 47  1  0  0  0
  8  9  1  0  0  0
  8 11  1  0  0  0
  9 10  2  0  0  0
  9 48  1  0  0  0
 10 49  1  0  0  0
 11 12  2  0  0  0
 11 17  1  0  0  0
 12 13  1  0  0  0
 13 14  1  0  0  0
 13 50  1  0  0  0
 14 15  2  0  0  0
 14 16  1  0  0  0
 16 51  1  0  0  0
 16 52  1  0  0  0
 17 18  2  0  0  0
 17 22  1  0  0  0
 18 19  1  0  0  0
 18 53  1  0  0  0
 19 20  2  0  0  0
 19 54  1  0  0  0
 20 21  1  0  0  0
 20 55  1  0  0  0
 21 22  2  0  0  0
 21 23  1  0  0  0
 22 56  1  0  0  0
 23 24  2  0  0  0
 23 29  1  0  0  0
 24 25  1  0  0  0
 25 26  1  0  0  0
 25 57  1  0  0  0
 26 27  2  0  0  0
 26 28  1  0  0  0
 28 58  1  0  0  0
 28 59  1  0  0  0
 29 30  2  0  0  0
 29 38  1  0  0  0
 30 31  1  0  0  0
 30 60  1  0  0  0
 31 32  2  0  0  0
 31 61  1  0  0  0
 32 33  1  0  0  0
 32 37  1  0  0  0
 33 34  1  0  0  0
 34 35  1  0  0  0
 34 36  1  0  0  0
 34 62  1  0  0  0
 35 63  1  0  0  0
 35 64  1  0  0  0
 35 65  1  0  0  0
 36 66  1  0  0  0
 36 67  1  0  0  0
 36 68  1  0  0  0
 37 38  2  0  0  0
 37 69  1  0  0  0
 38 70  1  0  0  0
M  END
> <chembl_id>
CHEMBL3699013

> <chembl_pref_name>
None

> <s_m_source_file>
sdf/inactives_sanitized.sdf

> <i_m_source_file_index>
452

> <i_lp_mmshare_version>
49012

> <i_m_ct_stereo_status>
1

> <i_f3d_flags>
0

> <s_epik_input>
W0NIM11bQ0hdKFtDSDNdKU9jMVtjSF1bY0hdYyhbY0hdW2NIXTEpL0MoPU4vW05IXUMoPVMpW05IMl0pYzJbY0hdW2NIXVtjSF1jKFtjSF0yKS9DKD1OL1tOSF1DKD1TKVtOSDJdKWMzW2NIXVtjSF1jKFtjSF1bY0hdMylPW0NIXShbQ0gzXSlbQ0gzXQ==

> <s_epik_cmdline>
J2VwaWtfcHl0aG9uJywgJy1waHQnLCAnMC41JywgJy1waCcsICc3LjUnLCAnLW50JywgJy1tYScsICcyMDAnLCAnLWltYWUnLCAnPGluZmlsZS5tYWU+JywgJy1vbWFlJywgJzxvdXRmaWxlLm1hZT4n

> <r_lp_tautomer_probability>
1

> <r_epik_Ionization_Penalty>
  0.0001

> <r_epik_Ionization_Penalty_Charging>
  0.0000

> <r_epik_Ionization_Penalty_Neutral>
  0.0001

> <r_epik_State_Penalty>
 -0.0000

> <r_epik_Charging_Adjusted_Penalty>
0

> <i_epik_Tot_Q>
0

> <i_epik_Tot_abs_Q>
0

> <s_epik_Chemistry_Notes>
This compound has an imine and may undergo hydrolysis.

> <s_lp_Force_Field>
OPLS3e

> <r_lp_Energy>
94.882626

> <b_lp_Chiralities_Consistent>
1

> <s_lp_Variant>
sdf/inactives_sanitized.sdf:452-1

$$$$
sdf/inactives_sanitized.sdf:453
                    3D
 Schrodinger Suite 2020-1.
 26 26  0  0  1  0            999 V2000
    2.6570    0.9726   -0.4063 S   0  0  0  0  0  0
   -3.2930   -0.1915    3.0120 O   0  0  0  0  0  0
   -1.3491   -1.2436    3.1499 O   0  5  0  0  0  0
   -0.3275    0.9044    0.9648 O   0  0  0  0  0  0
    2.4226   -1.4839   -1.5608 O   0  0  0  0  0  0
   -0.1224   -1.3111    0.4373 N   0  0  0  0  0  0
    3.3979    0.1630   -2.8473 N   0  0  0  0  0  0
   -1.4744   -1.6410    0.2212 C   0  0  0  0  0  0
   -2.5524   -1.3958    1.1193 C   0  0  0  0  0  0
   -2.3777   -0.8955    2.5265 C   0  0  0  0  0  0
    0.3624   -0.1021    0.7911 C   0  0  0  0  0  0
   -1.7208   -2.2742   -1.0027 C   0  0  0  0  0  0
   -3.8524   -1.7180    0.6913 C   0  0  0  0  0  0
   -3.0170   -2.6001   -1.3894 C   0  0  0  0  0  0
   -4.0845   -2.3085   -0.5485 C   0  0  0  0  0  0
    1.8844   -0.0046    0.9267 C   0  0  0  0  0  0
    2.8015   -0.3234   -1.7053 C   0  0  0  0  0  0
    0.5477   -1.9524    0.0384 H   0  0  0  0  0  0
    3.5148    1.1597   -2.9565 H   0  0  0  0  0  0
    3.5795   -0.4684   -3.6134 H   0  0  0  0  0  0
   -0.9075   -2.4897   -1.6819 H   0  0  0  0  0  0
   -4.7029   -1.5444    1.3359 H   0  0  0  0  0  0
   -3.1944   -3.0706   -2.3452 H   0  0  0  0  0  0
   -5.0919   -2.5574   -0.8477 H   0  0  0  0  0  0
    2.3517   -0.9875    1.0077 H   0  0  0  0  0  0
    2.1077    0.4939    1.8703 H   0  0  0  0  0  0
  1 16  1  0  0  0
  1 17  1  0  0  0
  2 10  2  0  0  0
  3 10  1  0  0  0
  4 11  2  0  0  0
  5 17  2  0  0  0
  6  8  1  0  0  0
  6 11  1  0  0  0
  6 18  1  0  0  0
  7 17  1  0  0  0
  7 19  1  0  0  0
  7 20  1  0  0  0
  8  9  2  0  0  0
  8 12  1  0  0  0
  9 10  1  0  0  0
  9 13  1  0  0  0
 11 16  1  0  0  0
 12 14  2  0  0  0
 12 21  1  0  0  0
 13 15  2  0  0  0
 13 22  1  0  0  0
 14 15  1  0  0  0
 14 23  1  0  0  0
 15 24  1  0  0  0
 16 25  1  0  0  0
 16 26  1  0  0  0
M  CHG  1   3  -1
M  END
> <chembl_id>
CHEMBL1458632

> <chembl_pref_name>
None

> <s_m_source_file>
sdf/inactives_sanitized.sdf

> <i_m_source_file_index>
453

> <i_lp_mmshare_version>
49012

> <i_m_ct_stereo_status>
1

> <i_f3d_flags>
0

> <s_epik_input>
Tz1DKFtOSDJdKVNbQ0gyXUMoPU8pW05IXWMxYyhDKD1PKVtPSF0pW2NIXVtjSF1bY0hdW2NIXTE=

> <s_epik_cmdline>
J2VwaWtfcHl0aG9uJywgJy1waHQnLCAnMC41JywgJy1waCcsICc3LjUnLCAnLW50JywgJy1tYScsICcyMDAnLCAnLWltYWUnLCAnPGluZmlsZS5tYWU+JywgJy1vbWFlJywgJzxvdXRmaWxlLm1hZT4n

> <r_lp_tautomer_probability>
1

> <r_epik_Ionization_Penalty>
  0.0001

> <r_epik_Ionization_Penalty_Charging>
  0.0001

> <r_epik_Ionization_Penalty_Neutral>
  0.0000

> <r_epik_State_Penalty>
 -0.0000

> <r_epik_Charging_Adjusted_Penalty>
5.68221730356294e-05

> <i_epik_Tot_Q>
-1

> <i_epik_Tot_abs_Q>
1

> <s_lp_Force_Field>
OPLS3e

> <r_lp_Energy>
27.250001

> <b_lp_Chiralities_Consistent>
1

> <s_lp_Variant>
sdf/inactives_sanitized.sdf:453-1

$$$$
sdf/inactives_sanitized.sdf:454
                    3D
 Schrodinger Suite 2020-1.
 71 74  0  0  1  0            999 V2000
    1.0048    4.3890    1.6371 C   0  0  0  0  0  0
   -0.4572    4.0112    1.9256 C   0  0  0  0  0  0
   -0.8999    2.8114    1.2188 N   0  0  0  0  0  0
   -0.5459    1.5526    1.5378 C   0  0  0  0  0  0
    0.1835    1.2191    2.4734 O   0  0  0  0  0  0
   -1.1546    0.4846    0.5282 C   0  0  0  0  0  0
   -2.1613    0.7584   -0.1300 O   0  0  0  0  0  0
   -0.4515   -0.8755    0.4086 C   0  0  2  0  0  0
   -0.8552   -1.8024    1.5834 C   0  0  0  0  0  0
   -0.3002   -3.2317    1.4634 C   0  0  0  0  0  0
    1.0143   -0.7275    0.2860 N   0  0  0  0  0  0
    1.7003   -0.0237   -0.6361 C   0  0  0  0  0  0
    1.1560    0.5893   -1.5569 O   0  0  0  0  0  0
    3.2196    0.1142   -0.3853 C   0  0  2  0  0  0
    3.5591    1.4432    0.2945 C   0  0  0  0  0  0
    3.8727    2.3904   -0.8503 C   0  0  2  0  0  0
    4.4368    1.5155   -1.9728 C   0  0  0  0  0  0
    4.0026    0.1494   -1.6410 N   0  0  0  0  0  0
    4.3111   -0.9741   -2.3489 C   0  0  0  0  0  0
    3.9003   -2.0764   -1.9738 O   0  0  0  0  0  0
    5.1621   -0.8987   -3.6599 C   0  0  0  0  0  0
    5.2116   -2.2002   -4.4601 C   0  0  0  0  0  0
    4.2793   -1.1032   -4.8910 C   0  0  0  0  0  0
    6.3756    0.0342   -3.7139 C   0  0  0  0  0  0
    6.4288    1.1048   -4.6145 C   0  0  0  0  0  0
    7.5314    1.9539   -4.6245 C   0  0  0  0  0  0
    8.5788    1.7396   -3.7310 C   0  0  0  0  0  0
    9.9362    2.8051   -3.7324 Cl  0  0  0  0  0  0
    8.5351    0.6761   -2.8319 C   0  0  0  0  0  0
    7.4352   -0.1770   -2.8256 C   0  0  0  0  0  0
    5.0477    3.7861   -0.3320 S   0  0  0  0  0  0
    4.3304    4.6996    0.5643 O   0  0  0  0  0  0
    6.3093    3.1788    0.1091 O   0  0  0  0  0  0
    5.3784    4.6802   -1.8617 C   0  0  0  0  0  0
    6.6675    4.6247   -2.4070 C   0  0  0  0  0  0
    6.9674    5.2974   -3.5904 C   0  0  0  0  0  0
    5.9802    6.0299   -4.2444 C   0  0  0  0  0  0
    4.6934    6.0901   -3.7132 C   0  0  0  0  0  0
    4.3833    5.4215   -2.5264 C   0  0  0  0  0  0
    2.7631    5.5456   -1.9313 Cl  0  0  0  0  0  0
    1.2663    5.3215    2.1372 H   0  0  0  0  0  0
    1.1796    4.5293    0.5699 H   0  0  0  0  0  0
    1.6946    3.6280    2.0016 H   0  0  0  0  0  0
   -0.6085    3.8889    2.9999 H   0  0  0  0  0  0
   -1.1064    4.8334    1.6229 H   0  0  0  0  0  0
   -1.5035    2.9545    0.4217 H   0  0  0  0  0  0
   -0.7829   -1.3635   -0.5109 H   0  0  0  0  0  0
   -0.5165   -1.3844    2.5330 H   0  0  0  0  0  0
   -1.9432   -1.8666    1.6486 H   0  0  0  0  0  0
   -0.6343   -3.8487    2.2979 H   0  0  0  0  0  0
    0.7902   -3.2417    1.4646 H   0  0  0  0  0  0
   -0.6384   -3.7101    0.5438 H   0  0  0  0  0  0
    1.5420   -1.2095    0.9993 H   0  0  0  0  0  0
    3.5039   -0.7441    0.2266 H   0  0  0  0  0  0
    2.7984    1.8055    0.9876 H   0  0  0  0  0  0
    4.4454    1.2901    0.9124 H   0  0  0  0  0  0
    2.9573    2.8832   -1.1764 H   0  0  0  0  0  0
    4.1064    1.8693   -2.9501 H   0  0  0  0  0  0
    5.5220    1.5751   -1.9042 H   0  0  0  0  0  0
    6.0996   -2.3987   -5.0609 H   0  0  0  0  0  0
    4.7881   -3.1249   -4.0661 H   0  0  0  0  0  0
    4.5043   -0.5787   -5.8192 H   0  0  0  0  0  0
    3.2045   -1.2520   -4.7725 H   0  0  0  0  0  0
    5.6155    1.2975   -5.2975 H   0  0  0  0  0  0
    7.5663    2.7822   -5.3171 H   0  0  0  0  0  0
    9.3476    0.5129   -2.1390 H   0  0  0  0  0  0
    7.4016   -0.9975   -2.1234 H   0  0  0  0  0  0
    7.4493    4.0595   -1.9214 H   0  0  0  0  0  0
    7.9653    5.2477   -4.0011 H   0  0  0  0  0  0
    6.2116    6.5509   -5.1618 H   0  0  0  0  0  0
    3.9338    6.6610   -4.2272 H   0  0  0  0  0  0
  1  2  1  0  0  0
  1 41  1  0  0  0
  1 42  1  0  0  0
  1 43  1  0  0  0
  2  3  1  0  0  0
  2 44  1  0  0  0
  2 45  1  0  0  0
  3  4  1  0  0  0
  3 46  1  0  0  0
  4  5  2  0  0  0
  4  6  1  0  0  0
  6  7  2  0  0  0
  6  8  1  0  0  0
  8  9  1  0  0  0
  8 11  1  0  0  0
  8 47  1  0  0  0
  9 10  1  0  0  0
  9 48  1  0  0  0
  9 49  1  0  0  0
 10 50  1  0  0  0
 10 51  1  0  0  0
 10 52  1  0  0  0
 11 12  1  0  0  0
 11 53  1  0  0  0
 12 13  2  0  0  0
 12 14  1  0  0  0
 14 15  1  0  0  0
 14 18  1  0  0  0
 14 54  1  0  0  0
 15 16  1  0  0  0
 15 55  1  0  0  0
 15 56  1  0  0  0
 16 17  1  0  0  0
 16 31  1  0  0  0
 16 57  1  0  0  0
 17 18  1  0  0  0
 17 58  1  0  0  0
 17 59  1  0  0  0
 18 19  1  0  0  0
 19 20  2  0  0  0
 19 21  1  0  0  0
 21 22  1  0  0  0
 21 23  1  0  0  0
 21 24  1  0  0  0
 22 23  1  0  0  0
 22 60  1  0  0  0
 22 61  1  0  0  0
 23 62  1  0  0  0
 23 63  1  0  0  0
 24 25  2  0  0  0
 24 30  1  0  0  0
 25 26  1  0  0  0
 25 64  1  0  0  0
 26 27  2  0  0  0
 26 65  1  0  0  0
 27 28  1  0  0  0
 27 29  1  0  0  0
 29 30  2  0  0  0
 29 66  1  0  0  0
 30 67  1  0  0  0
 31 32  2  0  0  0
 31 33  2  0  0  0
 31 34  1  0  0  0
 34 35  2  0  0  0
 34 39  1  0  0  0
 35 36  1  0  0  0
 35 68  1  0  0  0
 36 37  2  0  0  0
 36 69  1  0  0  0
 37 38  1  0  0  0
 37 70  1  0  0  0
 38 39  2  0  0  0
 38 71  1  0  0  0
 39 40  1  0  0  0
M  END
> <chembl_id>
CHEMBL3649404

> <chembl_pref_name>
None

> <i_m_ct_stereo_status>
1

> <s_m_source_file>
sdf/inactives_sanitized.sdf

> <i_m_source_file_index>
454

> <i_lp_mmshare_version>
49012

> <i_f3d_flags>
0

> <s_epik_input>
W0NIM11bQ0gyXVtOSF1DKD1PKUMoPU8pW0NASF0oW0NIMl1bQ0gzXSlbTkhdQyg9TylbQ0BASF0xW0NIMl1bQ0BASF0oUyg9TykoPU8pYzJbY0hdW2NIXVtjSF1bY0hdYzJDbClbQ0gyXU4xQyg9TylDMyhbQ0gyXVtDSDJdMyljNFtjSF1bY0hdYyhDbClbY0hdW2NIXTQ=

> <s_epik_cmdline>
J2VwaWtfcHl0aG9uJywgJy1waHQnLCAnMC41JywgJy1waCcsICc3LjUnLCAnLW50JywgJy1tYScsICcyMDAnLCAnLWltYWUnLCAnPGluZmlsZS5tYWU+JywgJy1vbWFlJywgJzxvdXRmaWxlLm1hZT4n

> <r_lp_tautomer_probability>
1

> <r_epik_Ionization_Penalty>
  0.0000

> <r_epik_Ionization_Penalty_Charging>
  0.0000

> <r_epik_Ionization_Penalty_Neutral>
  0.0000

> <r_epik_State_Penalty>
 -0.0000

> <r_epik_Charging_Adjusted_Penalty>
0

> <i_epik_Tot_Q>
0

> <i_epik_Tot_abs_Q>
0

> <s_lp_Force_Field>
OPLS3e

> <r_lp_Energy>
48.266053

> <b_lp_Chiralities_Consistent>
1

> <s_lp_Variant>
sdf/inactives_sanitized.sdf:454-1

$$$$
sdf/inactives_sanitized.sdf:455
                    3D
 Schrodinger Suite 2020-1.
 63 67  0  0  1  0            999 V2000
   -0.5976    0.8838   -0.2235 C   0  0  0  0  0  0
    0.0046   -0.3431    0.1017 C   0  0  0  0  0  0
   -0.8116   -1.4541    0.3620 C   0  0  0  0  0  0
   -2.1986   -1.3475    0.2998 C   0  0  0  0  0  0
   -2.8174   -0.1335   -0.0194 C   0  0  0  0  0  0
   -1.9954    0.9729   -0.2790 C   0  0  0  0  0  0
   -4.3076   -0.0279   -0.0769 C   0  0  0  0  0  0
   -5.0986   -1.0960   -0.5318 C   0  0  0  0  0  0
   -6.1738    1.3555    0.3143 C   0  0  0  0  0  0
   -4.8313    1.1633    0.3288 N   0  0  0  0  0  0
   -7.0517    0.3468   -0.1170 C   0  0  0  0  0  0
   -6.4822   -0.8814   -0.5411 C   0  0  0  0  0  0
   -7.5679   -1.6536   -0.9036 N   0  0  0  0  0  0
   -8.6825   -0.8750   -0.6821 C   0  0  0  0  0  0
   -8.4203    0.3180   -0.2150 N   0  0  0  0  0  0
    0.2671    2.1133   -0.5253 C   0  0  0  0  0  0
   -0.4560    3.1944   -0.8242 F   0  0  0  0  0  0
    1.0235    2.4053    0.5334 F   0  0  0  0  0  0
    1.0669    1.8564   -1.5618 F   0  0  0  0  0  0
    1.3849   -0.3857    0.1668 O   0  0  0  0  0  0
    2.0550   -1.6430    0.1834 C   0  0  0  0  0  0
    3.5682   -1.4067    0.0197 C   0  0  0  0  0  0
   -6.6201    2.6636    0.7701 C   0  0  0  0  0  0
   -6.9754    3.7036    1.1324 N   0  0  0  0  0  0
   -7.5474   -3.0103   -1.4220 C   0  0  0  0  0  0
    3.9717   -0.5634   -1.2160 C   0  0  2  0  0  0
    3.6086   -1.2424   -2.5556 C   0  0  0  0  0  0
    3.9284   -0.3215   -3.7460 C   0  0  0  0  0  0
    5.4378    0.0258   -3.7067 N   0  3  2  0  0  0
    5.8633    0.6826   -2.3700 C   0  0  0  0  0  0
    5.4865   -0.2696   -1.2208 C   0  0  0  0  0  0
    5.8817    0.8665   -4.9308 C   0  0  0  0  0  0
    5.1999    2.2231   -4.9826 C   0  0  0  0  0  0
    4.0434    2.5145   -5.5350 N   0  0  0  0  0  0
    3.8888    3.8035   -5.2951 C   0  0  0  0  0  0
    4.9668    4.3027   -4.5855 C   0  0  0  0  0  0
    5.8197    3.2725   -4.3823 O   0  0  0  0  0  0
   -0.3864   -2.4105    0.6254 H   0  0  0  0  0  0
   -2.7933   -2.2225    0.5179 H   0  0  0  0  0  0
   -2.4564    1.9165   -0.5336 H   0  0  0  0  0  0
   -4.6672   -2.0297   -0.8616 H   0  0  0  0  0  0
   -9.6655   -1.2696   -0.8956 H   0  0  0  0  0  0
    1.8668   -2.1527    1.1298 H   0  0  0  0  0  0
    1.6875   -2.2920   -0.6132 H   0  0  0  0  0  0
    3.9271   -0.9070    0.9209 H   0  0  0  0  0  0
    4.0786   -2.3706   -0.0063 H   0  0  0  0  0  0
   -8.5635   -3.3619   -1.6060 H   0  0  0  0  0  0
   -7.0642   -3.6663   -0.6971 H   0  0  0  0  0  0
   -6.9839   -3.0298   -2.3556 H   0  0  0  0  0  0
    3.4518    0.3957   -1.1655 H   0  0  0  0  0  0
    4.1161   -2.2037   -2.6509 H   0  0  0  0  0  0
    2.5468   -1.4872   -2.5776 H   0  0  0  0  0  0
    3.7357   -0.8053   -4.7044 H   0  0  0  0  0  0
    3.3703    0.6137   -3.6890 H   0  0  0  0  0  0
    6.9395    0.8523   -2.4254 H   0  0  0  0  0  0
    5.3456    1.6397   -2.2919 H   0  0  0  0  0  0
    5.7734    0.1859   -0.2719 H   0  0  0  0  0  0
    6.0615   -1.1959   -1.2677 H   0  0  0  0  0  0
    6.9682    0.9307   -4.8565 H   0  0  0  0  0  0
    5.6506    0.2389   -5.7929 H   0  0  0  0  0  0
    3.0210    4.3546   -5.6271 H   0  0  0  0  0  0
    5.2420    5.2711   -4.1933 H   0  0  0  0  0  0
    5.9316   -0.8542   -3.7591 H   0  0  0  0  0  0
  1  6  2  0  0  0
  1  2  1  0  0  0
  1 16  1  0  0  0
  2 20  1  0  0  0
  2  3  2  0  0  0
  3  4  1  0  0  0
  3 38  1  0  0  0
  4  5  2  0  0  0
  4 39  1  0  0  0
  5  7  1  0  0  0
  5  6  1  0  0  0
  6 40  1  0  0  0
  7 10  1  0  0  0
  7  8  2  0  0  0
  8 12  1  0  0  0
  8 41  1  0  0  0
  9 11  1  0  0  0
  9 10  2  0  0  0
  9 23  1  0  0  0
 11 12  2  0  0  0
 11 15  1  0  0  0
 12 13  1  0  0  0
 13 25  1  0  0  0
 13 14  1  0  0  0
 14 15  2  0  0  0
 14 42  1  0  0  0
 16 18  1  0  0  0
 16 19  1  0  0  0
 16 17  1  0  0  0
 20 21  1  0  0  0
 21 22  1  0  0  0
 21 43  1  0  0  0
 21 44  1  0  0  0
 22 26  1  0  0  0
 22 45  1  0  0  0
 22 46  1  0  0  0
 23 24  3  0  0  0
 25 47  1  0  0  0
 25 48  1  0  0  0
 25 49  1  0  0  0
 26 27  1  0  0  0
 26 31  1  0  0  0
 26 50  1  0  0  0
 27 28  1  0  0  0
 27 51  1  0  0  0
 27 52  1  0  0  0
 28 29  1  0  0  0
 28 53  1  0  0  0
 28 54  1  0  0  0
 29 30  1  0  0  0
 29 32  1  0  0  0
 29 63  1  0  0  0
 30 31  1  0  0  0
 30 55  1  0  0  0
 30 56  1  0  0  0
 31 57  1  0  0  0
 31 58  1  0  0  0
 32 33  1  0  0  0
 32 59  1  0  0  0
 32 60  1  0  0  0
 33 34  2  0  0  0
 33 37  1  0  0  0
 34 35  1  0  0  0
 35 36  2  0  0  0
 35 61  1  0  0  0
 36 37  1  0  0  0
 36 62  1  0  0  0
M  CHG  1  29   1
M  END
> <chembl_id>
CHEMBL1669278

> <chembl_pref_name>
None

> <s_m_source_file>
sdf/inactives_sanitized.sdf

> <i_m_source_file_index>
455

> <i_lp_mmshare_version>
49012

> <i_m_ct_stereo_status>
1

> <i_f3d_flags>
0

> <s_epik_input>
bjFbY0hdbihbQ0gzXSljKGMxMilbY0hdYyhuYzJDI04pLWMoW2NIXTMpW2NIXVtjSF1jKGMzQyhGKShGKUYpT1tDSDJdW0NIMl1bQ0hdNFtDSDJdW0NIMl1OKFtDSDJdW0NIMl00KVtDSDJdYzVuW2NIXVtjSF1vNQ==

> <s_epik_cmdline>
J2VwaWtfcHl0aG9uJywgJy1waHQnLCAnMC41JywgJy1waCcsICc3LjUnLCAnLW50JywgJy1tYScsICcyMDAnLCAnLWltYWUnLCAnPGluZmlsZS5tYWU+JywgJy1vbWFlJywgJzxvdXRmaWxlLm1hZT4n

> <r_lp_tautomer_probability>
1

> <r_epik_Ionization_Penalty>
  0.0001

> <r_epik_Ionization_Penalty_Charging>
  0.0001

> <r_epik_Ionization_Penalty_Neutral>
  0.0000

> <r_epik_State_Penalty>
 -0.0000

> <r_epik_Charging_Adjusted_Penalty>
8.14088841336406e-05

> <i_epik_Tot_Q>
1

> <i_epik_Tot_abs_Q>
1

> <s_lp_Force_Field>
OPLS3e

> <r_lp_Energy>
47.124239

> <b_lp_Chiralities_Consistent>
1

> <s_lp_Variant>
sdf/inactives_sanitized.sdf:455-1

$$$$
sdf/inactives_sanitized.sdf:456
                    3D
 Schrodinger Suite 2020-1.
 60 63  0  0  1  0            999 V2000
   -8.0965    0.6294   -3.3231 C   0  0  0  0  0  0
   -7.3046    1.9874   -2.2777 S   0  0  0  0  0  0
   -6.2776    2.6430   -3.0957 O   0  0  0  0  0  0
   -8.3673    2.7916   -1.6645 O   0  0  0  0  0  0
   -6.4663    1.0774   -0.9555 C   0  0  0  0  0  0
   -5.0669    1.0206   -0.9877 C   0  0  0  0  0  0
   -4.3329    0.3408   -0.0079 C   0  0  0  0  0  0
   -5.0339   -0.2959    1.0215 C   0  0  0  0  0  0
   -6.4252   -0.2582    1.0687 C   0  0  0  0  0  0
   -7.1533    0.4209    0.0874 C   0  0  0  0  0  0
   -8.6089    0.4000    0.1916 C   0  0  0  0  0  0
   -9.7630    0.3820    0.2742 N   0  0  0  0  0  0
   -2.8442    0.2940   -0.0637 C   0  0  0  0  0  0
   -2.1016    1.4284   -0.4191 C   0  0  0  0  0  0
   -0.7092    1.3846   -0.4777 C   0  0  0  0  0  0
   -0.0281    0.2024   -0.1774 C   0  0  0  0  0  0
    1.4962    0.1652   -0.2191 C   0  0  0  0  0  0
    2.1591    0.1109    1.1757 C   0  0  2  0  0  0
    1.7720    1.2391    2.0281 N   0  0  0  0  0  0
    0.8787    1.1884    3.0371 C   0  0  0  0  0  0
    0.3271    0.1399    3.3734 O   0  0  0  0  0  0
    0.5438    2.5146    3.7678 C   0  0  2  0  0  0
    1.8007    3.2910    4.2599 C   0  0  0  0  0  0
    1.3867    4.6767    4.8329 C   0  0  0  0  0  0
   -0.1480    4.9052    4.7223 C   0  0  2  0  0  0
   -0.8742    3.7636    5.4887 C   0  0  0  0  0  0
   -0.4932    2.3666    4.9214 C   0  0  0  0  0  0
   -0.5351    4.7811    3.2195 C   0  0  0  0  0  0
   -0.1297    3.3854    2.6768 N   0  3  0  0  0  0
    3.6266    0.0438    1.0824 C   0  0  0  0  0  0
    4.7802   -0.0075    1.0089 N   0  0  0  0  0  0
   -0.7575   -0.9365    0.1783 C   0  0  0  0  0  0
   -0.1211   -2.0935    0.4729 F   0  0  0  0  0  0
   -2.1503   -0.8870    0.2337 C   0  0  0  0  0  0
   -8.5994    1.0908   -4.1724 H   0  0  0  0  0  0
   -8.8201    0.0819   -2.7206 H   0  0  0  0  0  0
   -7.3173   -0.0454   -3.6761 H   0  0  0  0  0  0
   -4.5328    1.5067   -1.7907 H   0  0  0  0  0  0
   -4.5011   -0.8263    1.7977 H   0  0  0  0  0  0
   -6.9286   -0.7685    1.8787 H   0  0  0  0  0  0
   -2.6035    2.3568   -0.6507 H   0  0  0  0  0  0
   -0.1627    2.2754   -0.7516 H   0  0  0  0  0  0
    1.8074   -0.6956   -0.8134 H   0  0  0  0  0  0
    1.8666    1.0356   -0.7637 H   0  0  0  0  0  0
    1.8878   -0.8345    1.6502 H   0  0  0  0  0  0
    2.1308    2.1407    1.7508 H   0  0  0  0  0  0
    2.3197    2.7146    5.0281 H   0  0  0  0  0  0
    2.5233    3.4350    3.4544 H   0  0  0  0  0  0
    1.6958    4.7528    5.8768 H   0  0  0  0  0  0
    1.9205    5.4730    4.3115 H   0  0  0  0  0  0
   -0.4282    5.8823    5.1187 H   0  0  0  0  0  0
   -0.6220    3.8147    6.5491 H   0  0  0  0  0  0
   -1.9549    3.9071    5.4379 H   0  0  0  0  0  0
   -0.0831    1.7442    5.7189 H   0  0  0  0  0  0
   -1.3936    1.8557    4.5739 H   0  0  0  0  0  0
   -1.6098    4.8634    3.0509 H   0  0  0  0  0  0
   -0.0194    5.5060    2.5883 H   0  0  0  0  0  0
   -0.9542    2.9110    2.3358 H   0  0  0  0  0  0
   -2.6912   -1.7820    0.5050 H   0  0  0  0  0  0
    0.5045    3.5057    1.9001 H   0  0  0  0  0  0
  1  2  1  0  0  0
  1 35  1  0  0  0
  1 36  1  0  0  0
  1 37  1  0  0  0
  2  3  2  0  0  0
  2  4  2  0  0  0
  2  5  1  0  0  0
  5  6  2  0  0  0
  5 10  1  0  0  0
  6  7  1  0  0  0
  6 38  1  0  0  0
  7  8  2  0  0  0
  7 13  1  0  0  0
  8  9  1  0  0  0
  8 39  1  0  0  0
  9 10  2  0  0  0
  9 40  1  0  0  0
 10 11  1  0  0  0
 11 12  3  0  0  0
 13 14  2  0  0  0
 13 34  1  0  0  0
 14 15  1  0  0  0
 14 41  1  0  0  0
 15 16  2  0  0  0
 15 42  1  0  0  0
 16 17  1  0  0  0
 16 32  1  0  0  0
 17 18  1  0  0  0
 17 43  1  0  0  0
 17 44  1  0  0  0
 18 19  1  0  0  0
 18 30  1  0  0  0
 18 45  1  0  0  0
 19 20  1  0  0  0
 19 46  1  0  0  0
 20 21  2  0  0  0
 20 22  1  0  0  0
 22 23  1  0  0  0
 22 27  1  0  0  0
 22 29  1  0  0  0
 23 24  1  0  0  0
 23 47  1  0  0  0
 23 48  1  0  0  0
 24 25  1  0  0  0
 24 49  1  0  0  0
 24 50  1  0  0  0
 25 26  1  0  0  0
 25 28  1  0  0  0
 25 51  1  0  0  0
 26 27  1  0  0  0
 26 52  1  0  0  0
 26 53  1  0  0  0
 27 54  1  0  0  0
 27 55  1  0  0  0
 28 29  1  0  0  0
 28 56  1  0  0  0
 28 57  1  0  0  0
 29 58  1  0  0  0
 29 60  1  0  0  0
 30 31  3  0  0  0
 32 33  1  0  0  0
 32 34  2  0  0  0
 34 59  1  0  0  0
M  CHG  1  29   1
M  END
> <chembl_id>
CHEMBL3702567

> <chembl_pref_name>
None

> <i_m_ct_stereo_status>
1

> <s_m_source_file>
sdf/inactives_sanitized.sdf

> <i_m_source_file_index>
456

> <i_lp_mmshare_version>
49012

> <i_f3d_flags>
0

> <s_epik_input>
TiNDYzFbY0hdW2NIXWMoW2NIXWMxUyg9TykoPU8pW0NIM10pLWMyW2NIXVtjSF1jKGMoRilbY0hdMilbQ0gyXVtDQEBIXShDI04pW05IXUMoPU8pW0NAXTM0W0NIMl1bQ0gyXVtDQEhdKFtDSDJdW0NIMl0zKVtDSDJdW05IXTQ=

> <s_epik_cmdline>
J2VwaWtfcHl0aG9uJywgJy1waHQnLCAnMC41JywgJy1waCcsICc3LjUnLCAnLW50JywgJy1tYScsICcyMDAnLCAnLWltYWUnLCAnPGluZmlsZS5tYWU+JywgJy1vbWFlJywgJzxvdXRmaWxlLm1hZT4n

> <r_epik_Ionization_Penalty>
  0.2492

> <r_epik_Ionization_Penalty_Charging>
  0.2491

> <r_epik_Ionization_Penalty_Neutral>
  0.0001

> <r_epik_State_Penalty>
  0.2404

> <r_epik_Charging_Adjusted_Penalty>
0.489493738808436

> <i_epik_Tot_Q>
1

> <i_epik_Tot_abs_Q>
1

> <s_lp_Force_Field>
OPLS3e

> <r_lp_Energy>
55.58822

> <b_lp_Chiralities_Consistent>
1

> <s_lp_Variant>
sdf/inactives_sanitized.sdf:456-1

$$$$
sdf/inactives_sanitized.sdf:456
                    3D
 Schrodinger Suite 2020-1.
 59 62  0  0  1  0            999 V2000
   -7.9436   -3.5672    0.0990 C   0  0  0  0  0  0
   -7.2840   -2.5975   -1.3800 S   0  0  0  0  0  0
   -6.2283   -3.4005   -2.0077 O   0  0  0  0  0  0
   -8.4197   -2.1339   -2.1846 O   0  0  0  0  0  0
   -6.5077   -1.1450   -0.6275 C   0  0  0  0  0  0
   -5.1083   -1.0744   -0.6341 C   0  0  0  0  0  0
   -4.4212    0.0102   -0.0748 C   0  0  0  0  0  0
   -5.1699    1.0405    0.5031 C   0  0  0  0  0  0
   -6.5612    0.9874    0.5263 C   0  0  0  0  0  0
   -7.2422   -0.0980   -0.0319 C   0  0  0  0  0  0
   -8.6995   -0.0922    0.0456 C   0  0  0  0  0  0
   -9.8551   -0.0876    0.1084 N   0  0  0  0  0  0
   -2.9315    0.0640   -0.0943 C   0  0  0  0  0  0
   -2.2567    1.2612   -0.3705 C   0  0  0  0  0  0
   -0.8629    1.3108   -0.3920 C   0  0  0  0  0  0
   -0.1124    0.1610   -0.1353 C   0  0  0  0  0  0
    1.4107    0.2267   -0.1602 C   0  0  0  0  0  0
    2.0392    0.6269    1.1915 C   0  0  2  0  0  0
    3.4965    0.7186    1.0740 N   0  0  0  0  0  0
    4.3556    1.0599    2.0571 C   0  0  0  0  0  0
    3.9608    1.3487    3.1883 O   0  0  0  0  0  0
    5.8861    1.0734    1.7598 C   0  0  2  0  0  0
    6.5484   -0.1739    2.4272 C   0  0  0  0  0  0
    8.0775   -0.1909    2.1466 C   0  0  0  0  0  0
    8.4794    1.0257    1.2702 C   0  0  2  0  0  0
    8.0936    2.3376    2.0100 C   0  0  0  0  0  0
    6.5670    2.3661    2.3118 C   0  0  0  0  0  0
    7.5944    0.9537   -0.0104 C   0  0  0  0  0  0
    6.1515    1.0192    0.3020 N   0  0  2  0  0  0
    1.6246   -0.2628    2.2966 C   0  0  0  0  0  0
    1.2994   -0.9593    3.1620 N   0  0  0  0  0  0
   -0.7742   -1.0400    0.1426 C   0  0  0  0  0  0
   -0.0720   -2.1692    0.3938 F   0  0  0  0  0  0
   -2.1681   -1.0833    0.1622 C   0  0  0  0  0  0
   -8.4082   -4.4838   -0.2632 H   0  0  0  0  0  0
   -8.6807   -2.9653    0.6286 H   0  0  0  0  0  0
   -7.1132   -3.8096    0.7615 H   0  0  0  0  0  0
   -4.5365   -1.8705   -1.0876 H   0  0  0  0  0  0
   -4.6740    1.8903    0.9496 H   0  0  0  0  0  0
   -7.1022    1.8014    0.9895 H   0  0  0  0  0  0
   -2.8126    2.1642   -0.5779 H   0  0  0  0  0  0
   -0.3682    2.2469   -0.6075 H   0  0  0  0  0  0
    1.8099   -0.7311   -0.4990 H   0  0  0  0  0  0
    1.7116    0.9431   -0.9270 H   0  0  0  0  0  0
    1.6657    1.6188    1.4535 H   0  0  0  0  0  0
    3.8776    0.5617    0.1522 H   0  0  0  0  0  0
    6.3777   -0.1714    3.5057 H   0  0  0  0  0  0
    6.0984   -1.0966    2.0544 H   0  0  0  0  0  0
    8.6326   -0.1734    3.0856 H   0  0  0  0  0  0
    8.3590   -1.1209    1.6505 H   0  0  0  0  0  0
    9.5409    1.0038    1.0211 H   0  0  0  0  0  0
    8.6624    2.4244    2.9369 H   0  0  0  0  0  0
    8.3730    3.2024    1.4063 H   0  0  0  0  0  0
    6.4151    2.4530    3.3894 H   0  0  0  0  0  0
    6.1184    3.2591    1.8722 H   0  0  0  0  0  0
    7.8414    1.7748   -0.6844 H   0  0  0  0  0  0
    7.7932    0.0320   -0.5586 H   0  0  0  0  0  0
    5.7968    1.8694   -0.1123 H   0  0  0  0  0  0
   -2.6551   -2.0217    0.3849 H   0  0  0  0  0  0
  1  2  1  0  0  0
  1 35  1  0  0  0
  1 36  1  0  0  0
  1 37  1  0  0  0
  2  3  2  0  0  0
  2  4  2  0  0  0
  2  5  1  0  0  0
  5  6  2  0  0  0
  5 10  1  0  0  0
  6  7  1  0  0  0
  6 38  1  0  0  0
  7  8  2  0  0  0
  7 13  1  0  0  0
  8  9  1  0  0  0
  8 39  1  0  0  0
  9 10  2  0  0  0
  9 40  1  0  0  0
 10 11  1  0  0  0
 11 12  3  0  0  0
 13 14  2  0  0  0
 13 34  1  0  0  0
 14 15  1  0  0  0
 14 41  1  0  0  0
 15 16  2  0  0  0
 15 42  1  0  0  0
 16 17  1  0  0  0
 16 32  1  0  0  0
 17 18  1  0  0  0
 17 43  1  0  0  0
 17 44  1  0  0  0
 18 19  1  0  0  0
 18 30  1  0  0  0
 18 45  1  0  0  0
 19 20  1  0  0  0
 19 46  1  0  0  0
 20 21  2  0  0  0
 20 22  1  0  0  0
 22 23  1  0  0  0
 22 27  1  0  0  0
 22 29  1  0  0  0
 23 24  1  0  0  0
 23 47  1  0  0  0
 23 48  1  0  0  0
 24 25  1  0  0  0
 24 49  1  0  0  0
 24 50  1  0  0  0
 25 26  1  0  0  0
 25 28  1  0  0  0
 25 51  1  0  0  0
 26 27  1  0  0  0
 26 52  1  0  0  0
 26 53  1  0  0  0
 27 54  1  0  0  0
 27 55  1  0  0  0
 28 29  1  0  0  0
 28 56  1  0  0  0
 28 57  1  0  0  0
 29 58  1  0  0  0
 30 31  3  0  0  0
 32 33  1  0  0  0
 32 34  2  0  0  0
 34 59  1  0  0  0
M  END
> <chembl_id>
CHEMBL3702567

> <chembl_pref_name>
None

> <i_m_ct_stereo_status>
1

> <s_m_source_file>
sdf/inactives_sanitized.sdf

> <i_m_source_file_index>
456

> <i_lp_mmshare_version>
49012

> <i_f3d_flags>
0

> <s_epik_input>
TiNDYzFbY0hdW2NIXWMoW2NIXWMxUyg9TykoPU8pW0NIM10pLWMyW2NIXVtjSF1jKGMoRilbY0hdMilbQ0gyXVtDQEBIXShDI04pW05IXUMoPU8pW0NAXTM0W0NIMl1bQ0gyXVtDQEhdKFtDSDJdW0NIMl0zKVtDSDJdW05IXTQ=

> <s_epik_cmdline>
J2VwaWtfcHl0aG9uJywgJy1waHQnLCAnMC41JywgJy1waCcsICc3LjUnLCAnLW50JywgJy1tYScsICcyMDAnLCAnLWltYWUnLCAnPGluZmlsZS5tYWU+JywgJy1vbWFlJywgJzxvdXRmaWxlLm1hZT4n

> <r_epik_Ionization_Penalty>
  0.6336

> <r_epik_Ionization_Penalty_Charging>
  0.0000

> <r_epik_Ionization_Penalty_Neutral>
  0.6336

> <r_epik_State_Penalty>
  0.6506

> <r_epik_Charging_Adjusted_Penalty>
0.650608926039391

> <i_epik_Tot_Q>
0

> <i_epik_Tot_abs_Q>
0

> <s_lp_Force_Field>
OPLS3e

> <r_lp_Energy>
49.103787

> <b_lp_Chiralities_Consistent>
1

> <s_lp_Variant>
sdf/inactives_sanitized.sdf:456-2

$$$$
sdf/inactives_sanitized.sdf:457
                    3D
 Schrodinger Suite 2020-1.
 59 60  0  0  1  0            999 V2000
   -1.2771    1.0894   -1.8450 C   0  0  0  0  0  0
   -1.2026    0.2317   -0.8090 N   0  0  0  0  0  0
   -0.7353    2.1944   -1.8333 O   0  0  0  0  0  0
   -0.3884    0.4297    0.3888 C   0  0  2  0  0  0
    1.0787    0.0898    0.0801 C   0  0  0  0  0  0
   -0.9708   -0.4327    1.5343 C   0  0  0  0  0  0
    1.9701    1.0656    0.3102 N   0  0  0  0  0  0
    1.3669   -1.0262   -0.3531 O   0  0  0  0  0  0
   -0.2319   -0.3385    2.8918 C   0  0  0  0  0  0
   -0.8377   -1.3207    3.9171 C   0  0  0  0  0  0
   -0.1733    1.1055    3.4352 C   0  0  0  0  0  0
    3.3982    0.9722    0.0073 C   0  0  2  0  0  0
    4.1084    2.0795    0.6676 C   0  0  0  0  0  0
    3.7052    0.9243   -1.5057 C   0  0  0  0  0  0
    4.6667    2.9498    1.1873 N   0  0  0  0  0  0
    3.0038    1.9646   -2.1754 O   0  0  0  0  0  0
    3.1682    1.9570   -3.5854 C   0  0  0  0  0  0
    2.1959    2.9516   -4.1954 C   0  0  0  0  0  0
    0.9907    2.5034   -4.7418 C   0  0  0  0  0  0
    0.0918    3.4164   -5.2863 C   0  0  0  0  0  0
    0.4029    4.7746   -5.2843 C   0  0  0  0  0  0
    1.6031    5.2281   -4.7406 C   0  0  0  0  0  0
    2.5010    4.3150   -4.1934 C   0  0  0  0  0  0
   -2.0873    0.6708   -3.0845 C   0  0  0  0  0  0
   -2.3578   -0.7617   -3.2038 N   0  0  0  0  0  0
   -3.5121   -1.4158   -2.8556 C   0  0  0  0  0  0
   -3.2769   -2.7516   -3.1325 C   0  0  0  0  0  0
   -2.0631   -2.9462   -3.6152 N   0  0  0  0  0  0
   -1.5108   -1.7543   -3.6540 C   0  0  0  0  0  0
   -0.0956   -1.4966   -4.1300 C   0  0  0  0  0  0
   -1.6772   -0.6576   -0.8719 H   0  0  0  0  0  0
   -0.4571    1.4803    0.6768 H   0  0  0  0  0  0
   -0.9844   -1.4759    1.2136 H   0  0  0  0  0  0
   -2.0158   -0.1570    1.6852 H   0  0  0  0  0  0
    1.6419    1.9539    0.6612 H   0  0  0  0  0  0
    0.7967   -0.6662    2.7369 H   0  0  0  0  0  0
   -1.5787   -1.9800    3.4637 H   0  0  0  0  0  0
   -1.3359   -0.8126    4.7428 H   0  0  0  0  0  0
   -0.0640   -1.9572    4.3470 H   0  0  0  0  0  0
   -0.3421    1.1575    4.5108 H   0  0  0  0  0  0
   -0.9162    1.7497    2.9642 H   0  0  0  0  0  0
    0.8066    1.5459    3.2479 H   0  0  0  0  0  0
    3.8002    0.0755    0.4829 H   0  0  0  0  0  0
    3.3965   -0.0427   -1.9071 H   0  0  0  0  0  0
    4.7795    1.0133   -1.6783 H   0  0  0  0  0  0
    4.1920    2.2263   -3.8517 H   0  0  0  0  0  0
    2.9797    0.9632   -3.9980 H   0  0  0  0  0  0
    0.7470    1.4515   -4.7385 H   0  0  0  0  0  0
   -0.8423    3.0735   -5.7063 H   0  0  0  0  0  0
   -0.2941    5.4834   -5.7065 H   0  0  0  0  0  0
    1.8348    6.2831   -4.7407 H   0  0  0  0  0  0
    3.4289    4.6669   -3.7663 H   0  0  0  0  0  0
   -3.0361    1.2085   -3.0929 H   0  0  0  0  0  0
   -1.5445    0.9739   -3.9802 H   0  0  0  0  0  0
   -4.3649   -0.8873   -2.4555 H   0  0  0  0  0  0
   -3.9694   -3.5672   -2.9845 H   0  0  0  0  0  0
    0.4206   -2.4153   -4.4108 H   0  0  0  0  0  0
    0.5086   -1.0179   -3.3586 H   0  0  0  0  0  0
   -0.0790   -0.8455   -5.0039 H   0  0  0  0  0  0
  1  3  2  0  0  0
  1 24  1  0  0  0
  1  2  1  0  0  0
  2  4  1  0  0  0
  2 31  1  0  0  0
  4  5  1  0  0  0
  4  6  1  0  0  0
  4 32  1  0  0  0
  5  8  2  0  0  0
  5  7  1  0  0  0
  6  9  1  0  0  0
  6 33  1  0  0  0
  6 34  1  0  0  0
  7 12  1  0  0  0
  7 35  1  0  0  0
  9 10  1  0  0  0
  9 11  1  0  0  0
  9 36  1  0  0  0
 10 37  1  0  0  0
 10 38  1  0  0  0
 10 39  1  0  0  0
 11 40  1  0  0  0
 11 41  1  0  0  0
 11 42  1  0  0  0
 12 13  1  0  0  0
 12 14  1  0  0  0
 12 43  1  0  0  0
 13 15  3  0  0  0
 14 16  1  0  0  0
 14 44  1  0  0  0
 14 45  1  0  0  0
 16 17  1  0  0  0
 17 18  1  0  0  0
 17 46  1  0  0  0
 17 47  1  0  0  0
 18 19  2  0  0  0
 18 23  1  0  0  0
 19 20  1  0  0  0
 19 48  1  0  0  0
 20 21  2  0  0  0
 20 49  1  0  0  0
 21 22  1  0  0  0
 21 50  1  0  0  0
 22 23  2  0  0  0
 22 51  1  0  0  0
 23 52  1  0  0  0
 24 25  1  0  0  0
 24 53  1  0  0  0
 24 54  1  0  0  0
 25 26  1  0  0  0
 25 29  1  0  0  0
 26 27  2  0  0  0
 26 55  1  0  0  0
 27 28  1  0  0  0
 27 56  1  0  0  0
 28 29  2  0  0  0
 29 30  1  0  0  0
 30 57  1  0  0  0
 30 58  1  0  0  0
 30 59  1  0  0  0
M  END
> <chembl_id>
CHEMBL208253

> <chembl_pref_name>
None

> <i_m_ct_stereo_status>
1

> <s_m_source_file>
sdf/inactives_sanitized.sdf

> <i_m_source_file_index>
457

> <i_lp_mmshare_version>
49012

> <i_f3d_flags>
0

> <s_epik_input>
W0NIM11jMW5bY0hdW2NIXW4xW0NIMl1DKD1PKVtOSF1bQ0BASF0oW0NIMl1bQ0hdKFtDSDNdKVtDSDNdKUMoPU8pW05IXVtDQEhdKEMjTilbQ0gyXU9bQ0gyXWMyW2NIXVtjSF1bY0hdW2NIXVtjSF0y

> <s_epik_cmdline>
J2VwaWtfcHl0aG9uJywgJy1waHQnLCAnMC41JywgJy1waCcsICc3LjUnLCAnLW50JywgJy1tYScsICcyMDAnLCAnLWltYWUnLCAnPGluZmlsZS5tYWU+JywgJy1vbWFlJywgJzxvdXRmaWxlLm1hZT4n

> <r_lp_tautomer_probability>
1

> <r_epik_Ionization_Penalty>
  0.2775

> <r_epik_Ionization_Penalty_Charging>
  0.2775

> <r_epik_Ionization_Penalty_Neutral>
  0.0000

> <r_epik_State_Penalty>
  0.2699

> <r_epik_Charging_Adjusted_Penalty>
0.547376837100692

> <i_epik_Tot_Q>
0

> <i_epik_Tot_abs_Q>
0

> <s_lp_Force_Field>
OPLS3e

> <r_lp_Energy>
9.671874

> <b_lp_Chiralities_Consistent>
1

> <s_lp_Variant>
sdf/inactives_sanitized.sdf:457-1

$$$$
sdf/inactives_sanitized.sdf:457
                    3D
 Schrodinger Suite 2020-1.
 60 61  0  0  1  0            999 V2000
   -0.7807   -0.3586   -2.3342 C   0  0  0  0  0  0
   -0.8320   -0.7194   -1.0367 N   0  0  0  0  0  0
   -0.2699    0.6958   -2.7098 O   0  0  0  0  0  0
   -0.2492    0.0326    0.0740 C   0  0  2  0  0  0
    1.2794   -0.1365    0.0858 C   0  0  0  0  0  0
   -0.9161   -0.4347    1.3911 C   0  0  0  0  0  0
    1.9918    0.9503   -0.2467 N   0  0  0  0  0  0
    1.7698   -1.2279    0.3747 O   0  0  0  0  0  0
   -0.4190    0.2581    2.6838 C   0  0  0  0  0  0
   -1.0755   -0.3701    3.9318 C   0  0  0  0  0  0
   -0.5977    1.7909    2.6413 C   0  0  0  0  0  0
    3.4526    1.0101   -0.2983 C   0  0  2  0  0  0
    4.0572    0.7980    1.0303 C   0  0  0  0  0  0
    3.9345    2.3236   -0.9381 C   0  0  0  0  0  0
    4.5311    0.6322    2.0730 N   0  0  0  0  0  0
    3.3168    2.4765   -2.2098 O   0  0  0  0  0  0
    3.6437    3.6867   -2.8789 C   0  0  0  0  0  0
    2.8208    3.8039   -4.1545 C   0  0  0  0  0  0
    3.4224    4.2540   -5.3333 C   0  0  0  0  0  0
    2.6698    4.3671   -6.4997 C   0  0  0  0  0  0
    1.3171    4.0331   -6.4841 C   0  0  0  0  0  0
    0.7087    3.5894   -5.3120 C   0  0  0  0  0  0
    1.4603    3.4778   -4.1455 C   0  0  0  0  0  0
   -1.3892   -1.3003   -3.3896 C   0  0  0  0  0  0
   -1.9356   -2.5626   -2.8879 N   0  0  0  0  0  0
   -1.2618   -3.7788   -2.8611 C   0  0  0  0  0  0
   -2.0979   -4.7295   -2.2920 C   0  0  0  0  0  0
   -3.2761   -4.0834   -1.9697 N   0  3  0  0  0  0
   -3.1899   -2.7554   -2.3276 C   0  0  0  0  0  0
   -4.2674   -1.7134   -2.1244 C   0  0  0  0  0  0
   -1.2646   -1.5965   -0.7862 H   0  0  0  0  0  0
   -0.4860    1.0877   -0.0751 H   0  0  0  0  0  0
   -0.7706   -1.5116    1.4936 H   0  0  0  0  0  0
   -1.9946   -0.2901    1.3103 H   0  0  0  0  0  0
    1.5016    1.7982   -0.4928 H   0  0  0  0  0  0
    0.6496    0.0624    2.7801 H   0  0  0  0  0  0
   -1.6639   -1.2541    3.6841 H   0  0  0  0  0  0
   -1.7472    0.3178    4.4451 H   0  0  0  0  0  0
   -0.3183   -0.6817    4.6517 H   0  0  0  0  0  0
   -0.9579    2.1988    3.5857 H   0  0  0  0  0  0
   -1.3045    2.0999    1.8712 H   0  0  0  0  0  0
    0.3529    2.2807    2.4285 H   0  0  0  0  0  0
    3.8042    0.1927   -0.9316 H   0  0  0  0  0  0
    5.0206    2.3121   -1.0472 H   0  0  0  0  0  0
    3.6768    3.1661   -0.2925 H   0  0  0  0  0  0
    3.4251    4.5516   -2.2496 H   0  0  0  0  0  0
    4.7109    3.6994   -3.1097 H   0  0  0  0  0  0
    4.4707    4.5145   -5.3497 H   0  0  0  0  0  0
    3.1327    4.7125   -7.4124 H   0  0  0  0  0  0
    0.7342    4.1209   -7.3892 H   0  0  0  0  0  0
   -0.3409    3.3349   -5.3071 H   0  0  0  0  0  0
    0.9850    3.1374   -3.2370 H   0  0  0  0  0  0
   -2.1844   -0.7754   -3.9207 H   0  0  0  0  0  0
   -0.6269   -1.5345   -4.1344 H   0  0  0  0  0  0
   -0.2536   -3.8554   -3.2436 H   0  0  0  0  0  0
   -1.9666   -5.7824   -2.0861 H   0  0  0  0  0  0
   -5.1822   -2.1417   -1.7138 H   0  0  0  0  0  0
   -4.5378   -1.2256   -3.0612 H   0  0  0  0  0  0
   -3.9441   -0.9319   -1.4364 H   0  0  0  0  0  0
   -4.0782   -4.5169   -1.5338 H   0  0  0  0  0  0
  1  3  2  0  0  0
  1 24  1  0  0  0
  1  2  1  0  0  0
  2  4  1  0  0  0
  2 31  1  0  0  0
  4  5  1  0  0  0
  4  6  1  0  0  0
  4 32  1  0  0  0
  5  8  2  0  0  0
  5  7  1  0  0  0
  6  9  1  0  0  0
  6 33  1  0  0  0
  6 34  1  0  0  0
  7 12  1  0  0  0
  7 35  1  0  0  0
  9 10  1  0  0  0
  9 11  1  0  0  0
  9 36  1  0  0  0
 10 37  1  0  0  0
 10 38  1  0  0  0
 10 39  1  0  0  0
 11 40  1  0  0  0
 11 41  1  0  0  0
 11 42  1  0  0  0
 12 13  1  0  0  0
 12 14  1  0  0  0
 12 43  1  0  0  0
 13 15  3  0  0  0
 14 16  1  0  0  0
 14 44  1  0  0  0
 14 45  1  0  0  0
 16 17  1  0  0  0
 17 18  1  0  0  0
 17 46  1  0  0  0
 17 47  1  0  0  0
 18 19  2  0  0  0
 18 23  1  0  0  0
 19 20  1  0  0  0
 19 48  1  0  0  0
 20 21  2  0  0  0
 20 49  1  0  0  0
 21 22  1  0  0  0
 21 50  1  0  0  0
 22 23  2  0  0  0
 22 51  1  0  0  0
 23 52  1  0  0  0
 24 25  1  0  0  0
 24 53  1  0  0  0
 24 54  1  0  0  0
 25 26  1  0  0  0
 25 29  1  0  0  0
 26 27  2  0  0  0
 26 55  1  0  0  0
 27 28  1  0  0  0
 27 56  1  0  0  0
 28 29  2  0  0  0
 28 60  1  0  0  0
 29 30  1  0  0  0
 30 57  1  0  0  0
 30 58  1  0  0  0
 30 59  1  0  0  0
M  CHG  1  28   1
M  END
> <chembl_id>
CHEMBL208253

> <chembl_pref_name>
None

> <i_m_ct_stereo_status>
1

> <s_m_source_file>
sdf/inactives_sanitized.sdf

> <i_m_source_file_index>
457

> <i_lp_mmshare_version>
49012

> <i_f3d_flags>
0

> <s_epik_input>
W0NIM11jMW5bY0hdW2NIXW4xW0NIMl1DKD1PKVtOSF1bQ0BASF0oW0NIMl1bQ0hdKFtDSDNdKVtDSDNdKUMoPU8pW05IXVtDQEhdKEMjTilbQ0gyXU9bQ0gyXWMyW2NIXVtjSF1bY0hdW2NIXVtjSF0y

> <s_epik_cmdline>
J2VwaWtfcHl0aG9uJywgJy1waHQnLCAnMC41JywgJy1waCcsICc3LjUnLCAnLW50JywgJy1tYScsICcyMDAnLCAnLWltYWUnLCAnPGluZmlsZS5tYWU+JywgJy1vbWFlJywgJzxvdXRmaWxlLm1hZT4n

> <r_lp_tautomer_probability>
1

> <r_epik_Ionization_Penalty>
  0.5828

> <r_epik_Ionization_Penalty_Charging>
  0.0000

> <r_epik_Ionization_Penalty_Neutral>
  0.5828

> <r_epik_State_Penalty>
  0.5957

> <r_epik_Charging_Adjusted_Penalty>
0.595692161920769

> <i_epik_Tot_Q>
1

> <i_epik_Tot_abs_Q>
1

> <s_lp_Force_Field>
OPLS3e

> <r_lp_Energy>
13.591889

> <b_lp_Chiralities_Consistent>
1

> <s_lp_Variant>
sdf/inactives_sanitized.sdf:457-2

$$$$
sdf/inactives_sanitized.sdf:458
                    3D
 Schrodinger Suite 2020-1.
 38 39  0  0  1  0            999 V2000
    0.0175   -1.3315    1.7001 C   0  0  0  0  0  0
   -0.0748   -0.4793    2.9809 C   0  0  0  0  0  0
   -0.9824    0.6677    2.8227 N   0  0  2  0  0  0
   -0.5916    1.5435    1.7080 C   0  0  0  0  0  0
   -0.5972    0.7498    0.3835 C   0  0  0  0  0  0
    0.2801   -0.5319    0.4060 C   0  0  1  0  0  0
   -0.0961   -2.5562    1.7100 O   0  0  0  0  0  0
    1.7761   -0.1968    0.1910 C   0  0  0  0  0  0
    2.6293   -0.3034    1.0783 O   0  0  0  0  0  0
    2.0157    0.2275   -1.0697 O   0  0  0  0  0  0
    3.3275    0.5949   -1.4759 C   0  0  0  0  0  0
    3.3019    1.0359   -2.9426 C   0  0  0  0  0  0
   -1.0578    1.4110    4.0855 C   0  0  0  0  0  0
   -2.2302    2.3866    4.1440 C   0  0  0  0  0  0
   -2.0035    3.7190    4.5000 C   0  0  0  0  0  0
   -3.0717    4.6079    4.5873 C   0  0  0  0  0  0
   -4.3656    4.1596    4.3307 C   0  0  0  0  0  0
   -4.6023    2.8290    3.9928 C   0  0  0  0  0  0
   -3.5343    1.9398    3.9052 C   0  0  0  0  0  0
   -0.4210   -1.1258    3.7886 H   0  0  0  0  0  0
    0.9322   -0.1363    3.2227 H   0  0  0  0  0  0
   -1.2984    2.3705    1.6265 H   0  0  0  0  0  0
    0.3865    1.9864    1.9053 H   0  0  0  0  0  0
   -1.6261    0.5001    0.1185 H   0  0  0  0  0  0
   -0.2795    1.4180   -0.4189 H   0  0  0  0  0  0
   -0.0173   -1.1681   -0.4286 H   0  0  0  0  0  0
    3.6979    1.4082   -0.8497 H   0  0  0  0  0  0
    4.0069   -0.2503   -1.3533 H   0  0  0  0  0  0
    4.2988    1.3217   -3.2778 H   0  0  0  0  0  0
    2.6443    1.8941   -3.0848 H   0  0  0  0  0  0
    2.9510    0.2324   -3.5907 H   0  0  0  0  0  0
   -1.1712    0.7267    4.9283 H   0  0  0  0  0  0
   -0.1181    1.9393    4.2597 H   0  0  0  0  0  0
   -1.0021    4.0692    4.7044 H   0  0  0  0  0  0
   -2.8978    5.6397    4.8548 H   0  0  0  0  0  0
   -5.1940    4.8495    4.3989 H   0  0  0  0  0  0
   -5.6093    2.4878    3.8024 H   0  0  0  0  0  0
   -3.7190    0.9065    3.6493 H   0  0  0  0  0  0
  1  2  1  0  0  0
  1  6  1  0  0  0
  1  7  2  0  0  0
  2  3  1  0  0  0
  2 20  1  0  0  0
  2 21  1  0  0  0
  3  4  1  0  0  0
  3 13  1  0  0  0
  4  5  1  0  0  0
  4 22  1  0  0  0
  4 23  1  0  0  0
  5  6  1  0  0  0
  5 24  1  0  0  0
  5 25  1  0  0  0
  6  8  1  0  0  0
  6 26  1  0  0  0
  8  9  2  0  0  0
  8 10  1  0  0  0
 10 11  1  0  0  0
 11 12  1  0  0  0
 11 27  1  0  0  0
 11 28  1  0  0  0
 12 29  1  0  0  0
 12 30  1  0  0  0
 12 31  1  0  0  0
 13 14  1  0  0  0
 13 32  1  0  0  0
 13 33  1  0  0  0
 14 15  2  0  0  0
 14 19  1  0  0  0
 15 16  1  0  0  0
 15 34  1  0  0  0
 16 17  2  0  0  0
 16 35  1  0  0  0
 17 18  1  0  0  0
 17 36  1  0  0  0
 18 19  2  0  0  0
 18 37  1  0  0  0
 19 38  1  0  0  0
M  END
> <chembl_id>
CHEMBL2316604

> <chembl_pref_name>
None

> <s_m_source_file>
sdf/inactives_sanitized.sdf

> <i_m_source_file_index>
458

> <i_lp_mmshare_version>
49012

> <i_m_ct_stereo_status>
1

> <i_f3d_flags>
0

> <s_epik_input>
W2NIXTFbY0hdW2NIXVtjSF1bY0hdYzFbQ0gyXU4oW0NIMl1DMj1PKVtDSDJdW0NIMl1bQ0BIXTJDKD1PKU9bQ0gyXVtDSDNd

> <s_epik_cmdline>
J2VwaWtfcHl0aG9uJywgJy1waHQnLCAnMC41JywgJy1waCcsICc3LjUnLCAnLW50JywgJy1tYScsICcyMDAnLCAnLWltYWUnLCAnPGluZmlsZS5tYWU+JywgJy1vbWFlJywgJzxvdXRmaWxlLm1hZT4n

> <r_lp_tautomer_probability>
1

> <r_epik_Ionization_Penalty>
  0.0392

> <r_epik_Ionization_Penalty_Charging>
  0.0000

> <r_epik_Ionization_Penalty_Neutral>
  0.0392

> <r_epik_State_Penalty>
 -0.0000

> <r_epik_Charging_Adjusted_Penalty>
0

> <i_epik_Tot_Q>
0

> <i_epik_Tot_abs_Q>
0

> <s_epik_Chemistry_Notes>
This compound has an ester and may undergo hydrolysis at high or low pH.

> <s_lp_Force_Field>
OPLS3e

> <r_lp_Energy>
31.439001

> <b_lp_Chiralities_Consistent>
1

> <s_lp_Variant>
sdf/inactives_sanitized.sdf:458-1

$$$$
sdf/inactives_sanitized.sdf:459
                    3D
 Schrodinger Suite 2020-1.
 71 75  0  0  1  0            999 V2000
    0.7782   -2.3847    1.4860 C   0  0  0  0  0  0
   -0.0324   -1.0884    1.6574 C   0  0  0  0  0  0
   -0.0399   -0.1862    0.3952 C   0  0  2  0  0  0
    1.3275    0.2253    0.0274 N   0  0  0  0  0  0
    1.7205    0.7170   -1.1629 C   0  0  0  0  0  0
    0.9452    0.8929   -2.1049 O   0  0  0  0  0  0
    3.1990    1.1448   -1.2717 C   0  0  2  0  0  0
    3.3715    2.6691   -1.4461 C   0  0  0  0  0  0
    4.3332    2.8361   -2.6157 C   0  0  2  0  0  0
    4.1254    1.5780   -3.4600 C   0  0  0  0  0  0
    3.8351    0.5413   -2.4636 N   0  0  0  0  0  0
    4.4486   -0.6749   -2.4262 C   0  0  0  0  0  0
    4.4596   -1.3418   -1.3868 O   0  0  0  0  0  0
    5.0791   -1.2784   -3.7259 C   0  0  0  0  0  0
    6.5799   -1.5340   -3.5538 C   0  0  0  0  0  0
    5.6359   -2.6952   -3.5502 C   0  0  0  0  0  0
    4.4688   -0.9417   -5.0972 C   0  0  0  0  0  0
    5.3465   -0.5986   -6.0814 N   0  0  0  0  0  0
    4.8522   -0.2911   -7.3072 C   0  0  0  0  0  0
    3.4893   -0.3237   -7.6022 C   0  0  0  0  0  0
    2.8614    0.1221   -9.3422 Br  0  0  0  0  0  0
    2.5966   -0.6943   -6.5959 C   0  0  0  0  0  0
    3.0854   -1.0135   -5.3279 C   0  0  0  0  0  0
    2.2276   -1.3892   -4.3513 F   0  0  0  0  0  0
    6.1227    2.9509   -1.9648 S   0  0  0  0  0  0
    6.3335    4.2905   -1.4050 O   0  0  0  0  0  0
    6.3994    1.7710   -1.1363 O   0  0  0  0  0  0
    7.1413    2.8251   -3.4477 C   0  0  0  0  0  0
    7.9357    1.6850   -3.6205 C   0  0  0  0  0  0
    8.7124    1.5260   -4.7667 C   0  0  0  0  0  0
    8.7081    2.5102   -5.7516 C   0  0  0  0  0  0
    7.9280    3.6531   -5.5878 C   0  0  0  0  0  0
    7.1436    3.8191   -4.4440 C   0  0  0  0  0  0
    6.2012    5.2644   -4.3170 Cl  0  0  0  0  0  0
   -0.8990    1.0644    0.6303 C   0  0  0  0  0  0
   -0.4446    2.1974    0.8286 O   0  0  0  0  0  0
   -2.4674    0.8243    0.5900 C   0  0  0  0  0  0
   -2.9461   -0.2752    0.3050 O   0  0  0  0  0  0
   -3.1663    1.9336    0.8933 N   0  0  0  0  0  0
   -4.6166    1.9729    1.0456 C   0  0  0  0  0  0
   -5.4967    1.7048   -0.1573 C   0  0  0  0  0  0
   -5.3800    3.1042    0.3976 C   0  0  0  0  0  0
    0.7284   -2.9956    2.3878 H   0  0  0  0  0  0
    1.8306   -2.1792    1.2883 H   0  0  0  0  0  0
    0.3933   -2.9837    0.6599 H   0  0  0  0  0  0
   -1.0505   -1.3657    1.9352 H   0  0  0  0  0  0
    0.3760   -0.5386    2.5076 H   0  0  0  0  0  0
   -0.4402   -0.7704   -0.4373 H   0  0  0  0  0  0
    2.0123    0.1430    0.7649 H   0  0  0  0  0  0
    3.6842    0.7932   -0.3589 H   0  0  0  0  0  0
    2.4411    3.1665   -1.7295 H   0  0  0  0  0  0
    3.7258    3.1637   -0.5407 H   0  0  0  0  0  0
    4.1751    3.7571   -3.1744 H   0  0  0  0  0  0
    3.2034    1.7328   -4.0223 H   0  0  0  0  0  0
    4.9547    1.3934   -4.1416 H   0  0  0  0  0  0
    7.2487   -1.4064   -4.4052 H   0  0  0  0  0  0
    7.0743   -1.2662   -2.6186 H   0  0  0  0  0  0
    5.6252   -3.3615   -4.4133 H   0  0  0  0  0  0
    5.4884   -3.2513   -2.6236 H   0  0  0  0  0  0
    5.5740   -0.0149   -8.0616 H   0  0  0  0  0  0
    1.5358   -0.7373   -6.7949 H   0  0  0  0  0  0
    7.9567    0.9102   -2.8697 H   0  0  0  0  0  0
    9.3171    0.6397   -4.8902 H   0  0  0  0  0  0
    9.3105    2.3892   -6.6398 H   0  0  0  0  0  0
    7.9329    4.4135   -6.3550 H   0  0  0  0  0  0
   -2.6572    2.7629    1.1638 H   0  0  0  0  0  0
   -4.9612    1.6049    2.0130 H   0  0  0  0  0  0
   -5.0251    1.4713   -1.1125 H   0  0  0  0  0  0
   -6.4202    1.1464   -0.0045 H   0  0  0  0  0  0
   -4.8282    3.8543   -0.1697 H   0  0  0  0  0  0
   -6.2238    3.5324    0.9390 H   0  0  0  0  0  0
  1  2  1  0  0  0
  1 43  1  0  0  0
  1 44  1  0  0  0
  1 45  1  0  0  0
  2  3  1  0  0  0
  2 46  1  0  0  0
  2 47  1  0  0  0
  3  4  1  0  0  0
  3 35  1  0  0  0
  3 48  1  0  0  0
  4  5  1  0  0  0
  4 49  1  0  0  0
  5  6  2  0  0  0
  5  7  1  0  0  0
  7  8  1  0  0  0
  7 11  1  0  0  0
  7 50  1  0  0  0
  8  9  1  0  0  0
  8 51  1  0  0  0
  8 52  1  0  0  0
  9 10  1  0  0  0
  9 25  1  0  0  0
  9 53  1  0  0  0
 10 11  1  0  0  0
 10 54  1  0  0  0
 10 55  1  0  0  0
 11 12  1  0  0  0
 12 13  2  0  0  0
 12 14  1  0  0  0
 14 15  1  0  0  0
 14 16  1  0  0  0
 14 17  1  0  0  0
 15 16  1  0  0  0
 15 56  1  0  0  0
 15 57  1  0  0  0
 16 58  1  0  0  0
 16 59  1  0  0  0
 17 18  2  0  0  0
 17 23  1  0  0  0
 18 19  1  0  0  0
 19 20  2  0  0  0
 19 60  1  0  0  0
 20 21  1  0  0  0
 20 22  1  0  0  0
 22 23  2  0  0  0
 22 61  1  0  0  0
 23 24  1  0  0  0
 25 26  2  0  0  0
 25 27  2  0  0  0
 25 28  1  0  0  0
 28 29  2  0  0  0
 28 33  1  0  0  0
 29 30  1  0  0  0
 29 62  1  0  0  0
 30 31  2  0  0  0
 30 63  1  0  0  0
 31 32  1  0  0  0
 31 64  1  0  0  0
 32 33  2  0  0  0
 32 65  1  0  0  0
 33 34  1  0  0  0
 35 36  2  0  0  0
 35 37  1  0  0  0
 37 38  2  0  0  0
 37 39  1  0  0  0
 39 40  1  0  0  0
 39 66  1  0  0  0
 40 41  1  0  0  0
 40 42  1  0  0  0
 40 67  1  0  0  0
 41 42  1  0  0  0
 41 68  1  0  0  0
 41 69  1  0  0  0
 42 70  1  0  0  0
 42 71  1  0  0  0
M  END
> <chembl_id>
CHEMBL3649384

> <chembl_pref_name>
None

> <i_m_ct_stereo_status>
1

> <s_m_source_file>
sdf/inactives_sanitized.sdf

> <i_m_source_file_index>
459

> <i_lp_mmshare_version>
49012

> <i_f3d_flags>
0

> <s_epik_input>
W0NIMl0xW0NIMl1bQ0hdMVtOSF1DKD1PKUMoPU8pW0NASF0oW0NIMl1bQ0gzXSlbTkhdQyg9TylbQ0BASF0yW0NIMl1bQ0BASF0oUyg9TykoPU8pYzNbY0hdW2NIXVtjSF1bY0hdYzNDbClbQ0gyXU4yQyg9TylDNChbQ0gyXVtDSDJdNCljNW5bY0hdYyhCcilbY0hdYzVG

> <s_epik_cmdline>
J2VwaWtfcHl0aG9uJywgJy1waHQnLCAnMC41JywgJy1waCcsICc3LjUnLCAnLW50JywgJy1tYScsICcyMDAnLCAnLWltYWUnLCAnPGluZmlsZS5tYWU+JywgJy1vbWFlJywgJzxvdXRmaWxlLm1hZT4n

> <r_lp_tautomer_probability>
1

> <r_epik_Ionization_Penalty>
  0.0000

> <r_epik_Ionization_Penalty_Charging>
  0.0000

> <r_epik_Ionization_Penalty_Neutral>
  0.0000

> <r_epik_State_Penalty>
 -0.0000

> <r_epik_Charging_Adjusted_Penalty>
0

> <i_epik_Tot_Q>
0

> <i_epik_Tot_abs_Q>
0

> <s_lp_Force_Field>
OPLS3e

> <r_lp_Energy>
44.507934

> <b_lp_Chiralities_Consistent>
1

> <s_lp_Variant>
sdf/inactives_sanitized.sdf:459-1

$$$$
sdf/inactives_sanitized.sdf:460
                    3D
 Schrodinger Suite 2020-1.
 33 34  0  0  1  0            999 V2000
   -2.7313   -0.0106   -0.1114 N   0  0  0  0  0  0
   -2.1090   -1.2251   -0.0617 C   0  0  0  0  0  0
   -0.7074   -1.3202   -0.0425 C   0  0  0  0  0  0
    0.0252   -0.1273   -0.0849 C   0  0  0  0  0  0
   -0.5741    1.0928   -0.1411 N   0  0  0  0  0  0
   -1.9304    1.0847   -0.1511 C   0  0  0  0  0  0
   -2.5915    2.3769   -0.2080 C   0  0  0  0  0  0
   -3.1181    3.4065   -0.2533 N   0  0  0  0  0  0
   -2.9912   -2.4310   -0.0117 C   0  0  0  0  0  0
    1.5474   -0.1320   -0.0628 C   0  0  0  0  0  0
    2.1766    0.3395   -1.3878 C   0  0  0  0  0  0
    3.7107    0.3231   -1.3573 C   0  0  0  0  0  0
   -4.2423   -2.3887    0.6206 C   0  0  0  0  0  0
   -5.0575   -3.5160    0.6689 C   0  0  0  0  0  0
   -4.6371   -4.7140    0.0850 C   0  0  0  0  0  0
   -3.3955   -4.7650   -0.5541 C   0  0  0  0  0  0
   -2.5825   -3.6359   -0.5986 C   0  0  0  0  0  0
   -5.5347   -5.9508    0.1244 C   0  0  0  0  0  0
   -5.3563   -6.7159   -0.9543 F   0  0  0  0  0  0
   -5.2359   -6.6683    1.2071 F   0  0  0  0  0  0
   -6.8258   -5.6177    0.1794 F   0  0  0  0  0  0
   -0.2060   -2.2756    0.0111 H   0  0  0  0  0  0
    1.9031   -1.1365    0.1732 H   0  0  0  0  0  0
    1.8830    0.5022    0.7597 H   0  0  0  0  0  0
    1.8296   -0.2959   -2.2040 H   0  0  0  0  0  0
    1.8382    1.3501   -1.6217 H   0  0  0  0  0  0
    4.1227    0.6559   -2.3104 H   0  0  0  0  0  0
    4.0926   -0.6801   -1.1643 H   0  0  0  0  0  0
    4.0978    0.9843   -0.5811 H   0  0  0  0  0  0
   -4.5904   -1.4783    1.0869 H   0  0  0  0  0  0
   -6.0142   -3.4530    1.1670 H   0  0  0  0  0  0
   -3.0536   -5.6796   -1.0167 H   0  0  0  0  0  0
   -1.6305   -3.7059   -1.1043 H   0  0  0  0  0  0
  1  6  2  0  0  0
  1  2  1  0  0  0
  2  3  2  0  0  0
  2  9  1  0  0  0
  3  4  1  0  0  0
  3 22  1  0  0  0
  4  5  2  0  0  0
  4 10  1  0  0  0
  5  6  1  0  0  0
  6  7  1  0  0  0
  7  8  3  0  0  0
  9 13  2  0  0  0
  9 17  1  0  0  0
 10 11  1  0  0  0
 10 23  1  0  0  0
 10 24  1  0  0  0
 11 12  1  0  0  0
 11 25  1  0  0  0
 11 26  1  0  0  0
 12 27  1  0  0  0
 12 28  1  0  0  0
 12 29  1  0  0  0
 13 14  1  0  0  0
 13 30  1  0  0  0
 14 15  2  0  0  0
 14 31  1  0  0  0
 15 16  1  0  0  0
 15 18  1  0  0  0
 16 17  2  0  0  0
 16 32  1  0  0  0
 17 33  1  0  0  0
 18 19  1  0  0  0
 18 20  1  0  0  0
 18 21  1  0  0  0
M  END
> <chembl_id>
CHEMBL1079099

> <chembl_pref_name>
None

> <s_m_source_file>
sdf/inactives_sanitized.sdf

> <i_m_source_file_index>
460

> <i_lp_mmshare_version>
49012

> <i_m_ct_stereo_status>
1

> <i_f3d_flags>
0

> <s_epik_input>
W0NIM11bQ0gyXVtDSDJdYyhbY0hdMSluYyhDI04pbmMxLWMyW2NIXVtjSF1jKEMoRikoRilGKVtjSF1bY0hdMg==

> <s_epik_cmdline>
J2VwaWtfcHl0aG9uJywgJy1waHQnLCAnMC41JywgJy1waCcsICc3LjUnLCAnLW50JywgJy1tYScsICcyMDAnLCAnLWltYWUnLCAnPGluZmlsZS5tYWU+JywgJy1vbWFlJywgJzxvdXRmaWxlLm1hZT4n

> <r_lp_tautomer_probability>
1

> <r_epik_Ionization_Penalty>
  0.0000

> <r_epik_Ionization_Penalty_Charging>
  0.0000

> <r_epik_Ionization_Penalty_Neutral>
  0.0000

> <r_epik_State_Penalty>
 -0.0000

> <r_epik_Charging_Adjusted_Penalty>
0

> <i_epik_Tot_Q>
0

> <i_epik_Tot_abs_Q>
0

> <s_lp_Force_Field>
OPLS3e

> <r_lp_Energy>
28.053269

> <b_lp_Chiralities_Consistent>
1

> <s_lp_Variant>
sdf/inactives_sanitized.sdf:460-1

$$$$
sdf/inactives_sanitized.sdf:461
                    3D
 Schrodinger Suite 2020-1.
 53 56  0  0  1  0            999 V2000
    4.8336    0.0573   -3.6718 C   0  0  0  0  0  0
    3.3899   -0.2769   -3.3619 C   0  0  0  0  0  0
    4.4555   -1.3577   -3.3206 C   0  0  0  0  0  0
   -4.0922   -0.8966   -0.4178 C   0  0  0  0  0  0
   -5.0572    0.0181    0.0209 C   0  0  0  0  0  0
   -4.6227    1.2496    0.5264 C   0  0  0  0  0  0
   -3.2671    1.5595    0.5895 C   0  0  0  0  0  0
   -2.3032    0.6436    0.1491 C   0  0  0  0  0  0
   -2.7356   -0.5917   -0.3569 C   0  0  0  0  0  0
   -6.5143   -0.3113   -0.0507 C   0  0  0  0  0  0
   -7.4053    0.1598    0.9251 C   0  0  0  0  0  0
   -8.7622   -0.1452    0.8597 C   0  0  0  0  0  0
   -9.2434   -0.9266   -0.1861 C   0  0  0  0  0  0
   -8.3779   -1.4044   -1.1652 C   0  0  0  0  0  0
   -7.0215   -1.0980   -1.0957 C   0  0  0  0  0  0
   -0.8330    1.0047    0.2231 C   0  0  0  0  0  0
    0.0430    0.0181   -0.0509 N   0  0  0  0  0  0
   -0.4779    2.1433    0.5365 O   0  0  0  0  0  0
    1.5059    0.1282   -0.0332 C   0  0  2  0  0  0
    2.0669   -0.5581   -1.2929 C   0  0  0  0  0  0
    2.8317    0.1970   -2.0989 N   0  0  0  0  0  0
    1.8264   -1.7492   -1.4989 O   0  0  0  0  0  0
    2.1403   -0.4686    1.2525 C   0  0  0  0  0  0
    1.6152    0.1874    2.5245 C   0  0  0  0  0  0
    2.4288   -0.3348   -4.4780 C   0  0  0  0  0  0
    1.6741   -0.3804   -5.3539 N   0  0  0  0  0  0
    0.6236   -0.4278    3.2967 C   0  0  0  0  0  0
    0.1487    0.2090    4.4446 C   0  0  0  0  0  0
    0.6842    1.4511    4.7950 C   0  0  0  0  0  0
    1.6495    2.0608    4.0590 N   0  0  0  0  0  0
    2.0996    1.4303    2.9443 C   0  0  0  0  0  0
    0.1048    2.2455    6.2126 Cl  0  0  0  0  0  0
    5.1114    0.2827   -4.7020 H   0  0  0  0  0  0
    5.4126    0.6336   -2.9494 H   0  0  0  0  0  0
    4.7733   -1.7565   -2.3564 H   0  0  0  0  0  0
    4.4687   -2.1130   -4.1070 H   0  0  0  0  0  0
   -4.3863   -1.8617   -0.8035 H   0  0  0  0  0  0
   -5.3359    1.9868    0.8650 H   0  0  0  0  0  0
   -2.9781    2.5235    0.9840 H   0  0  0  0  0  0
   -2.0334   -1.3327   -0.7106 H   0  0  0  0  0  0
   -7.0502    0.7594    1.7503 H   0  0  0  0  0  0
   -9.4376    0.2217    1.6186 H   0  0  0  0  0  0
  -10.2959   -1.1636   -0.2386 H   0  0  0  0  0  0
   -8.7569   -2.0084   -1.9765 H   0  0  0  0  0  0
   -6.3683   -1.4696   -1.8716 H   0  0  0  0  0  0
   -0.3154   -0.8909   -0.3047 H   0  0  0  0  0  0
    1.7825    1.1847   -0.0722 H   0  0  0  0  0  0
    2.9360    1.1806   -1.8957 H   0  0  0  0  0  0
    1.9550   -1.5437    1.3072 H   0  0  0  0  0  0
    3.2258   -0.3538    1.2287 H   0  0  0  0  0  0
    0.2168   -1.3857    3.0068 H   0  0  0  0  0  0
   -0.6196   -0.2525    5.0475 H   0  0  0  0  0  0
    2.8603    1.9484    2.3789 H   0  0  0  0  0  0
  1  2  1  0  0  0
  1  3  1  0  0  0
  1 33  1  0  0  0
  1 34  1  0  0  0
  2  3  1  0  0  0
  2 21  1  0  0  0
  2 25  1  0  0  0
  3 35  1  0  0  0
  3 36  1  0  0  0
  4  5  2  0  0  0
  4  9  1  0  0  0
  4 37  1  0  0  0
  5  6  1  0  0  0
  5 10  1  0  0  0
  6  7  2  0  0  0
  6 38  1  0  0  0
  7  8  1  0  0  0
  7 39  1  0  0  0
  8  9  2  0  0  0
  8 16  1  0  0  0
  9 40  1  0  0  0
 10 11  2  0  0  0
 10 15  1  0  0  0
 11 12  1  0  0  0
 11 41  1  0  0  0
 12 13  2  0  0  0
 12 42  1  0  0  0
 13 14  1  0  0  0
 13 43  1  0  0  0
 14 15  2  0  0  0
 14 44  1  0  0  0
 15 45  1  0  0  0
 16 17  1  0  0  0
 16 18  2  0  0  0
 17 19  1  0  0  0
 17 46  1  0  0  0
 19 20  1  0  0  0
 19 23  1  0  0  0
 19 47  1  0  0  0
 20 21  1  0  0  0
 20 22  2  0  0  0
 21 48  1  0  0  0
 23 24  1  0  0  0
 23 49  1  0  0  0
 23 50  1  0  0  0
 24 27  2  0  0  0
 24 31  1  0  0  0
 25 26  3  0  0  0
 27 28  1  0  0  0
 27 51  1  0  0  0
 28 29  2  0  0  0
 28 52  1  0  0  0
 29 30  1  0  0  0
 29 32  1  0  0  0
 30 31  2  0  0  0
 31 53  1  0  0  0
M  END
> <chembl_id>
CHEMBL4229174

> <chembl_pref_name>
None

> <s_m_source_file>
sdf/inactives_sanitized.sdf

> <i_m_source_file_index>
461

> <i_lp_mmshare_version>
49012

> <i_m_ct_stereo_status>
1

> <i_f3d_flags>
0

> <s_epik_input>
W2NIXTFuYyhDbClbY0hdW2NIXWMxW0NIMl1bQ0BASF0oQyg9TylbTkhdQzIoQyNOKVtDSDJdW0NIMl0yKVtOSF1DKD1PKWMoW2NIXVtjSF0zKVtjSF1bY0hdYzMtYzRbY0hdW2NIXVtjSF1bY0hdW2NIXTQ=

> <s_epik_cmdline>
J2VwaWtfcHl0aG9uJywgJy1waHQnLCAnMC41JywgJy1waCcsICc3LjUnLCAnLW50JywgJy1tYScsICcyMDAnLCAnLWltYWUnLCAnPGluZmlsZS5tYWU+JywgJy1vbWFlJywgJzxvdXRmaWxlLm1hZT4n

> <r_lp_tautomer_probability>
1

> <r_epik_Ionization_Penalty>
  0.0000

> <r_epik_Ionization_Penalty_Charging>
  0.0000

> <r_epik_Ionization_Penalty_Neutral>
  0.0000

> <r_epik_State_Penalty>
 -0.0000

> <r_epik_Charging_Adjusted_Penalty>
0

> <i_epik_Tot_Q>
0

> <i_epik_Tot_abs_Q>
0

> <s_lp_Force_Field>
OPLS3e

> <r_lp_Energy>
46.272135

> <b_lp_Chiralities_Consistent>
1

> <s_lp_Variant>
sdf/inactives_sanitized.sdf:461-1

$$$$
sdf/inactives_sanitized.sdf:462
                    3D
 Schrodinger Suite 2020-1.
 43 45  0  0  1  0            999 V2000
   -2.1522    3.4964    0.4820 N   0  0  0  0  0  0
   -0.8129    3.5239    0.6925 C   0  0  0  0  0  0
   -0.0820    4.8920    1.2699 S   0  0  0  0  0  0
   -0.0756    2.4099    0.4230 N   0  0  0  0  0  0
   -0.5857    1.2556   -0.0536 N   0  0  0  0  0  0
    0.1982    0.2602   -0.2793 C   0  0  0  0  0  0
   -0.5271   -0.9949   -0.5619 C   0  0  0  0  0  0
   -0.3388   -1.6549   -1.7848 C   0  0  0  0  0  0
   -1.0039   -2.8475   -2.0555 C   0  0  0  0  0  0
   -1.8684   -3.3864   -1.1068 C   0  0  0  0  0  0
   -2.5133   -4.5457   -1.3685 F   0  0  0  0  0  0
   -2.0740   -2.7403    0.1091 C   0  0  0  0  0  0
   -1.4073   -1.5481    0.3799 C   0  0  0  0  0  0
    1.7088    0.2186   -0.2607 C   0  0  0  0  0  0
    2.5346    1.3566   -0.3551 C   0  0  0  0  0  0
    3.9239    1.2588   -0.3436 C   0  0  0  0  0  0
    4.5374    0.0145   -0.2598 C   0  0  0  0  0  0
    3.7656   -1.1505   -0.2092 C   0  0  0  0  0  0
    2.3689   -1.0246   -0.1828 C   0  0  0  0  0  0
    4.4344   -2.4909   -0.0898 C   0  0  0  0  0  0
    5.5480   -2.5695    0.4356 O   0  0  0  0  0  0
    3.7635   -3.7376   -0.5961 C   0  0  0  0  0  0
    4.0683   -4.9745   -0.0094 C   0  0  0  0  0  0
    3.4777   -6.1441   -0.4811 C   0  0  0  0  0  0
    2.5939   -6.0883   -1.5553 C   0  0  0  0  0  0
    2.0199   -7.2239   -2.0125 F   0  0  0  0  0  0
    2.3037   -4.8726   -2.1680 C   0  0  0  0  0  0
    2.8945   -3.7031   -1.6978 C   0  0  0  0  0  0
   -2.7071    4.3162    0.6807 H   0  0  0  0  0  0
   -2.5869    2.6558    0.1295 H   0  0  0  0  0  0
    0.9220    2.4137    0.5800 H   0  0  0  0  0  0
    0.3311   -1.2498   -2.5302 H   0  0  0  0  0  0
   -0.8483   -3.3529   -2.9972 H   0  0  0  0  0  0
   -2.7460   -3.1631    0.8413 H   0  0  0  0  0  0
   -1.5724   -1.0601    1.3304 H   0  0  0  0  0  0
    2.1378    2.3506   -0.4771 H   0  0  0  0  0  0
    4.5271    2.1523   -0.4121 H   0  0  0  0  0  0
    5.6174   -0.0334   -0.2547 H   0  0  0  0  0  0
    1.7852   -1.9261   -0.0685 H   0  0  0  0  0  0
    4.7535   -5.0401    0.8243 H   0  0  0  0  0  0
    3.7061   -7.0916   -0.0158 H   0  0  0  0  0  0
    1.6276   -4.8371   -3.0096 H   0  0  0  0  0  0
    2.6710   -2.7761   -2.2059 H   0  0  0  0  0  0
  1  2  1  0  0  0
  1 29  1  0  0  0
  1 30  1  0  0  0
  2  3  2  0  0  0
  2  4  1  0  0  0
  4  5  1  0  0  0
  4 31  1  0  0  0
  5  6  2  0  0  0
  6  7  1  0  0  0
  6 14  1  0  0  0
  7  8  2  0  0  0
  7 13  1  0  0  0
  8  9  1  0  0  0
  8 32  1  0  0  0
  9 10  2  0  0  0
  9 33  1  0  0  0
 10 11  1  0  0  0
 10 12  1  0  0  0
 12 13  2  0  0  0
 12 34  1  0  0  0
 13 35  1  0  0  0
 14 15  2  0  0  0
 14 19  1  0  0  0
 15 16  1  0  0  0
 15 36  1  0  0  0
 16 17  2  0  0  0
 16 37  1  0  0  0
 17 18  1  0  0  0
 17 38  1  0  0  0
 18 19  2  0  0  0
 18 20  1  0  0  0
 19 39  1  0  0  0
 20 21  2  0  0  0
 20 22  1  0  0  0
 22 23  2  0  0  0
 22 28  1  0  0  0
 23 24  1  0  0  0
 23 40  1  0  0  0
 24 25  2  0  0  0
 24 41  1  0  0  0
 25 26  1  0  0  0
 25 27  1  0  0  0
 27 28  2  0  0  0
 27 42  1  0  0  0
 28 43  1  0  0  0
M  END
> <chembl_id>
CHEMBL3699009

> <chembl_pref_name>
None

> <s_m_source_file>
sdf/inactives_sanitized.sdf

> <i_m_source_file_index>
462

> <i_lp_mmshare_version>
49012

> <i_m_ct_stereo_status>
1

> <i_f3d_flags>
0

> <s_epik_input>
W2NIXTFbY0hdYyhGKVtjSF1bY0hdYzFcQyg9TlxbTkhdQyg9UylbTkgyXSljMltjSF1bY0hdW2NIXWMoW2NIXTIpQyg9TyljM1tjSF1bY0hdYyhGKVtjSF1bY0hdMw==

> <s_epik_cmdline>
J2VwaWtfcHl0aG9uJywgJy1waHQnLCAnMC41JywgJy1waCcsICc3LjUnLCAnLW50JywgJy1tYScsICcyMDAnLCAnLWltYWUnLCAnPGluZmlsZS5tYWU+JywgJy1vbWFlJywgJzxvdXRmaWxlLm1hZT4n

> <r_lp_tautomer_probability>
1

> <r_epik_Ionization_Penalty>
  0.0001

> <r_epik_Ionization_Penalty_Charging>
  0.0000

> <r_epik_Ionization_Penalty_Neutral>
  0.0001

> <r_epik_State_Penalty>
 -0.0000

> <r_epik_Charging_Adjusted_Penalty>
0

> <i_epik_Tot_Q>
0

> <i_epik_Tot_abs_Q>
0

> <s_epik_Chemistry_Notes>
This compound has an imine and may undergo hydrolysis.

> <s_lp_Force_Field>
OPLS3e

> <r_lp_Energy>
60.609277

> <b_lp_Chiralities_Consistent>
1

> <s_lp_Variant>
sdf/inactives_sanitized.sdf:462-1

$$$$
sdf/inactives_sanitized.sdf:463
                    3D
 Schrodinger Suite 2020-1.
 53 56  0  0  1  0            999 V2000
   -1.0249    2.0097   -0.9051 C   0  0  0  0  0  0
   -0.8857    1.5322   -2.0344 O   0  0  0  0  0  0
   -0.7332    1.3108    0.2066 N   0  0  0  0  0  0
   -1.5330    3.4608   -0.6792 C   0  0  2  0  0  0
   -2.8134    3.5228    0.2331 C   0  0  2  0  0  0
   -1.7540    4.1407   -1.9814 N   0  0  1  0  0  0
   -4.0065    2.9182   -0.5663 C   0  0  0  0  0  0
   -3.0932    5.0357    0.4574 C   0  0  0  0  0  0
   -3.0895    4.7582   -2.0815 C   0  0  1  0  0  0
   -4.1537    3.6359   -1.9372 C   0  0  0  0  0  0
   -3.2470    5.7652   -0.9082 C   0  0  0  0  0  0
   -0.2089   -0.0540    0.2319 C   0  0  1  0  0  0
    1.3259   -0.0932    0.0597 C   0  0  0  0  0  0
   -0.6716   -0.7324    1.4552 C   0  0  0  0  0  0
    1.8983   -1.5037    0.0368 C   0  0  0  0  0  0
   -1.0348   -1.2647    2.4164 N   0  0  0  0  0  0
    2.3436   -2.0973    1.2185 C   0  0  0  0  0  0
    1.9716   -2.2063   -1.1662 C   0  0  0  0  0  0
    2.8563   -3.3909    1.1958 C   0  0  0  0  0  0
    2.4891   -3.4986   -1.1852 C   0  0  0  0  0  0
    2.9349   -4.1070   -0.0050 C   0  0  0  0  0  0
    3.4795   -5.4939   -0.0252 C   0  0  0  0  0  0
    3.1337   -6.4152    0.9724 C   0  0  0  0  0  0
    4.3490   -5.9115   -1.0421 C   0  0  0  0  0  0
    3.6375   -7.7154    0.9549 C   0  0  0  0  0  0
    4.8599   -7.2102   -1.0676 C   0  0  0  0  0  0
    4.5022   -8.1204   -0.0649 C   0  0  0  0  0  0
    5.6987   -7.5668   -2.0705 F   0  0  0  0  0  0
    5.0176   -9.4834   -0.0688 C   0  0  0  0  0  0
    5.4263  -10.5660   -0.0712 N   0  0  0  0  0  0
   -0.8068    1.7761    1.0994 H   0  0  0  0  0  0
   -0.6975    3.9564   -0.1813 H   0  0  0  0  0  0
   -2.6726    3.0123    1.1869 H   0  0  0  0  0  0
   -1.0824    4.8905   -2.0640 H   0  0  0  0  0  0
   -3.8716    1.8456   -0.7116 H   0  0  0  0  0  0
   -4.9275    3.0225    0.0093 H   0  0  0  0  0  0
   -3.9963    5.1643    1.0560 H   0  0  0  0  0  0
   -2.2858    5.4864    1.0364 H   0  0  0  0  0  0
   -3.1877    5.2629   -3.0431 H   0  0  0  0  0  0
   -4.0502    2.9154   -2.7502 H   0  0  0  0  0  0
   -5.1553    4.0567   -2.0350 H   0  0  0  0  0  0
   -4.2221    6.2514   -0.9641 H   0  0  0  0  0  0
   -2.5082    6.5636   -0.9945 H   0  0  0  0  0  0
   -0.6733   -0.6336   -0.5694 H   0  0  0  0  0  0
    1.6136    0.4137   -0.8635 H   0  0  0  0  0  0
    1.8081    0.4771    0.8558 H   0  0  0  0  0  0
    2.2886   -1.5616    2.1552 H   0  0  0  0  0  0
    1.6264   -1.7549   -2.0853 H   0  0  0  0  0  0
    3.1979   -3.8340    2.1201 H   0  0  0  0  0  0
    2.5333   -4.0303   -2.1246 H   0  0  0  0  0  0
    2.4614   -6.1280    1.7681 H   0  0  0  0  0  0
    4.6396   -5.2217   -1.8216 H   0  0  0  0  0  0
    3.3465   -8.4007    1.7391 H   0  0  0  0  0  0
  1  2  2  0  0  0
  1  3  1  0  0  0
  1  4  1  0  0  0
  3 12  1  0  0  0
  3 31  1  0  0  0
  4  5  1  0  0  0
  4  6  1  0  0  0
  4 32  1  0  0  0
  5  7  1  0  0  0
  5  8  1  0  0  0
  5 33  1  0  0  0
  6  9  1  0  0  0
  6 34  1  0  0  0
  7 10  1  0  0  0
  7 35  1  0  0  0
  7 36  1  0  0  0
  8 11  1  0  0  0
  8 37  1  0  0  0
  8 38  1  0  0  0
  9 10  1  0  0  0
  9 11  1  0  0  0
  9 39  1  0  0  0
 10 40  1  0  0  0
 10 41  1  0  0  0
 11 42  1  0  0  0
 11 43  1  0  0  0
 12 13  1  0  0  0
 12 14  1  0  0  0
 12 44  1  0  0  0
 13 15  1  0  0  0
 13 45  1  0  0  0
 13 46  1  0  0  0
 14 16  3  0  0  0
 15 17  2  0  0  0
 15 18  1  0  0  0
 17 19  1  0  0  0
 17 47  1  0  0  0
 18 20  2  0  0  0
 18 48  1  0  0  0
 19 21  2  0  0  0
 19 49  1  0  0  0
 20 21  1  0  0  0
 20 50  1  0  0  0
 21 22  1  0  0  0
 22 23  2  0  0  0
 22 24  1  0  0  0
 23 25  1  0  0  0
 23 51  1  0  0  0
 24 26  2  0  0  0
 24 52  1  0  0  0
 25 27  2  0  0  0
 25 53  1  0  0  0
 26 27  1  0  0  0
 26 28  1  0  0  0
 27 29  1  0  0  0
 29 30  3  0  0  0
M  END
> <chembl_id>
CHEMBL3928940

> <chembl_pref_name>
None

> <i_m_ct_stereo_status>
1

> <s_m_source_file>
sdf/inactives_sanitized.sdf

> <i_m_source_file_index>
463

> <i_lp_mmshare_version>
49012

> <i_f3d_flags>
0

> <s_epik_input>
W0NIMl0xW0NIMl1bQ0BASF0oW0NIMl1bQ0gyXTIpW05IXVtDQEBIXShbQ0BIXTEyKUMoPU8pW05IXVtDQEhdKEMjTilbQ0gyXWMzW2NIXVtjSF1jKFtjSF1bY0hdMyktYzRbY0hdW2NIXWMoQyNOKWMoRilbY0hdNA==

> <s_epik_cmdline>
J2VwaWtfcHl0aG9uJywgJy1waHQnLCAnMC41JywgJy1waCcsICc3LjUnLCAnLW50JywgJy1tYScsICcyMDAnLCAnLWltYWUnLCAnPGluZmlsZS5tYWU+JywgJy1vbWFlJywgJzxvdXRmaWxlLm1hZT4n

> <r_epik_Ionization_Penalty>
  0.4101

> <r_epik_Ionization_Penalty_Charging>
  0.0000

> <r_epik_Ionization_Penalty_Neutral>
  0.4101

> <r_epik_State_Penalty>
  0.4100

> <r_epik_Charging_Adjusted_Penalty>
0.410033589345069

> <i_epik_Tot_Q>
0

> <i_epik_Tot_abs_Q>
0

> <s_lp_Force_Field>
OPLS3e

> <r_lp_Energy>
46.282725

> <b_lp_Chiralities_Consistent>
1

> <s_lp_Variant>
sdf/inactives_sanitized.sdf:463-1

$$$$
sdf/inactives_sanitized.sdf:463
                    3D
 Schrodinger Suite 2020-1.
 54 57  0  0  1  0            999 V2000
   -1.0225    2.0265   -0.7883 C   0  0  0  0  0  0
   -0.8724    1.5406   -1.9127 O   0  0  0  0  0  0
   -0.7633    1.3327    0.3340 N   0  0  0  0  0  0
   -1.5100    3.4835   -0.5761 C   0  0  2  0  0  0
   -2.9033    3.5805    0.1369 C   0  0  2  0  0  0
   -1.6040    4.1302   -1.9903 N   0  3  0  0  0  0
   -3.9982    2.9362   -0.7683 C   0  0  0  0  0  0
   -3.2248    5.0977    0.2586 C   0  0  0  0  0  0
   -2.9956    4.7500   -2.2638 C   0  0  1  0  0  0
   -4.0241    3.5947   -2.1763 C   0  0  0  0  0  0
   -3.2499    5.7845   -1.1376 C   0  0  0  0  0  0
   -0.2476   -0.0359    0.3721 C   0  0  1  0  0  0
    1.2921   -0.0803    0.2604 C   0  0  0  0  0  0
   -0.7572   -0.7221    1.5718 C   0  0  0  0  0  0
    1.8537   -1.4930    0.1841 C   0  0  0  0  0  0
   -1.1579   -1.2606    2.5145 N   0  0  0  0  0  0
    2.3032   -2.1332    1.3394 C   0  0  0  0  0  0
    1.9178   -2.1489   -1.0453 C   0  0  0  0  0  0
    2.8182   -3.4243    1.2619 C   0  0  0  0  0  0
    2.4350   -3.4391   -1.1184 C   0  0  0  0  0  0
    2.8927   -4.0924    0.0330 C   0  0  0  0  0  0
    3.4498   -5.4732   -0.0485 C   0  0  0  0  0  0
    4.5827   -5.8367    0.6923 C   0  0  0  0  0  0
    2.8555   -6.4422   -0.8691 C   0  0  0  0  0  0
    5.1071   -7.1269    0.6169 C   0  0  0  0  0  0
    3.3726   -7.7358   -0.9513 C   0  0  0  0  0  0
    4.5054   -8.0832   -0.2049 C   0  0  0  0  0  0
    2.7621   -8.6375   -1.7582 F   0  0  0  0  0  0
    5.0657   -9.4266   -0.2719 C   0  0  0  0  0  0
    5.5109  -10.4933   -0.3247 N   0  0  0  0  0  0
   -0.8389    1.8039    1.2239 H   0  0  0  0  0  0
   -0.7127    4.0161   -0.0545 H   0  0  0  0  0  0
   -2.8847    3.1139    1.1233 H   0  0  0  0  0  0
   -0.9021    4.8515   -2.0765 H   0  0  0  0  0  0
   -3.8447    1.8597   -0.8563 H   0  0  0  0  0  0
   -4.9745    3.0466   -0.2931 H   0  0  0  0  0  0
   -4.1866    5.2330    0.7562 H   0  0  0  0  0  0
   -2.4922    5.5865    0.9029 H   0  0  0  0  0  0
   -2.9449    5.2006   -3.2559 H   0  0  0  0  0  0
   -3.8120    2.8469   -2.9424 H   0  0  0  0  0  0
   -5.0247    3.9709   -2.3949 H   0  0  0  0  0  0
   -4.2119    6.2746   -1.2954 H   0  0  0  0  0  0
   -2.5006    6.5769   -1.1798 H   0  0  0  0  0  0
   -0.6829   -0.6099   -0.4492 H   0  0  0  0  0  0
    1.6212    0.4660   -0.6255 H   0  0  0  0  0  0
    1.7466    0.4465    1.1015 H   0  0  0  0  0  0
    2.2525   -1.6352    2.2970 H   0  0  0  0  0  0
    1.5706   -1.6606   -1.9445 H   0  0  0  0  0  0
    3.1562   -3.9061    2.1680 H   0  0  0  0  0  0
    2.4852   -3.9275   -2.0806 H   0  0  0  0  0  0
    5.0708   -5.1141    1.3303 H   0  0  0  0  0  0
    1.9774   -6.1959   -1.4487 H   0  0  0  0  0  0
    5.9835   -7.3718    1.2014 H   0  0  0  0  0  0
   -1.4126    3.4252   -2.6892 H   0  0  0  0  0  0
  1  2  2  0  0  0
  1  3  1  0  0  0
  1  4  1  0  0  0
  3 12  1  0  0  0
  3 31  1  0  0  0
  4  5  1  0  0  0
  4  6  1  0  0  0
  4 32  1  0  0  0
  5  7  1  0  0  0
  5  8  1  0  0  0
  5 33  1  0  0  0
  6  9  1  0  0  0
  6 34  1  0  0  0
  6 54  1  0  0  0
  7 10  1  0  0  0
  7 35  1  0  0  0
  7 36  1  0  0  0
  8 11  1  0  0  0
  8 37  1  0  0  0
  8 38  1  0  0  0
  9 10  1  0  0  0
  9 11  1  0  0  0
  9 39  1  0  0  0
 10 40  1  0  0  0
 10 41  1  0  0  0
 11 42  1  0  0  0
 11 43  1  0  0  0
 12 13  1  0  0  0
 12 14  1  0  0  0
 12 44  1  0  0  0
 13 15  1  0  0  0
 13 45  1  0  0  0
 13 46  1  0  0  0
 14 16  3  0  0  0
 15 17  2  0  0  0
 15 18  1  0  0  0
 17 19  1  0  0  0
 17 47  1  0  0  0
 18 20  2  0  0  0
 18 48  1  0  0  0
 19 21  2  0  0  0
 19 49  1  0  0  0
 20 21  1  0  0  0
 20 50  1  0  0  0
 21 22  1  0  0  0
 22 23  2  0  0  0
 22 24  1  0  0  0
 23 25  1  0  0  0
 23 51  1  0  0  0
 24 26  2  0  0  0
 24 52  1  0  0  0
 25 27  2  0  0  0
 25 53  1  0  0  0
 26 27  1  0  0  0
 26 28  1  0  0  0
 27 29  1  0  0  0
 29 30  3  0  0  0
M  CHG  1   6   1
M  END
> <chembl_id>
CHEMBL3928940

> <chembl_pref_name>
None

> <i_m_ct_stereo_status>
1

> <s_m_source_file>
sdf/inactives_sanitized.sdf

> <i_m_source_file_index>
463

> <i_lp_mmshare_version>
49012

> <i_f3d_flags>
0

> <s_epik_input>
W0NIMl0xW0NIMl1bQ0BASF0oW0NIMl1bQ0gyXTIpW05IXVtDQEBIXShbQ0BIXTEyKUMoPU8pW05IXVtDQEhdKEMjTilbQ0gyXWMzW2NIXVtjSF1jKFtjSF1bY0hdMyktYzRbY0hdW2NIXWMoQyNOKWMoRilbY0hdNA==

> <s_epik_cmdline>
J2VwaWtfcHl0aG9uJywgJy1waHQnLCAnMC41JywgJy1waCcsICc3LjUnLCAnLW50JywgJy1tYScsICcyMDAnLCAnLWltYWUnLCAnPGluZmlsZS5tYWU+JywgJy1vbWFlJywgJzxvdXRmaWxlLm1hZT4n

> <r_epik_Ionization_Penalty>
  0.4114

> <r_epik_Ionization_Penalty_Charging>
  0.4113

> <r_epik_Ionization_Penalty_Neutral>
  0.0002

> <r_epik_State_Penalty>
  0.4113

> <r_epik_Charging_Adjusted_Penalty>
0.822612897831462

> <i_epik_Tot_Q>
1

> <i_epik_Tot_abs_Q>
1

> <s_lp_Force_Field>
OPLS3e

> <r_lp_Energy>
53.274936

> <b_lp_Chiralities_Consistent>
1

> <s_lp_Variant>
sdf/inactives_sanitized.sdf:463-2

$$$$
sdf/inactives_sanitized.sdf:464
                    3D
 Schrodinger Suite 2020-1.
 64 66  0  0  1  0            999 V2000
    0.0904    0.0873    0.4620 C   0  0  0  0  0  0
   -0.3068   -0.7301    1.7525 C   0  0  0  0  0  0
   -0.2819   -2.2726    1.6917 C   0  0  0  0  0  0
   -0.7581   -2.8645    0.3628 C   0  0  0  0  0  0
    0.0435   -2.2831   -0.8045 C   0  0  0  0  0  0
    0.0449   -0.7408   -0.8797 C   0  0  0  0  0  0
   -4.8811    1.7291   -0.0713 C   0  0  0  0  0  0
   -4.0196    2.8243    0.0340 C   0  0  0  0  0  0
   -2.6490    2.6234    0.1666 C   0  0  0  0  0  0
   -2.1134    1.3349    0.1977 C   0  0  0  0  0  0
   -2.9814    0.2412    0.0863 C   0  0  0  0  0  0
   -4.3537    0.4359   -0.0451 C   0  0  0  0  0  0
   -0.7349    1.2737    0.3318 O   0  0  0  0  0  0
    1.5845    0.4623    0.6704 C   0  0  0  0  0  0
    1.8805    1.7713    0.7837 N   0  0  0  0  0  0
    2.4443   -0.4200    0.7488 O   0  0  0  0  0  0
    3.2112    2.3220    1.0308 C   0  0  0  0  0  0
    3.6762    2.1437    2.4866 C   0  0  0  0  0  0
    4.9451    2.8077    2.7618 N   0  0  0  0  0  0
    5.5127    2.7933    4.0482 C   0  0  0  0  0  0
    6.8090    3.2913    4.1875 C   0  0  0  0  0  0
    7.4271    3.3109    5.4350 C   0  0  0  0  0  0
    6.7518    2.8286    6.5666 C   0  0  0  0  0  0
    5.4571    2.3301    6.4236 C   0  0  0  0  0  0
    4.8375    2.3114    5.1774 C   0  0  0  0  0  0
    7.2827    2.8085    7.8420 O   0  0  0  0  0  0
    8.5923    3.3234    8.0568 C   0  0  0  0  0  0
   -6.3898    1.9385   -0.2173 C   0  0  0  0  0  0
   -6.7437    2.6729   -1.5244 C   0  0  0  0  0  0
   -6.9966    2.6398    1.0130 C   0  0  0  0  0  0
    0.1005   -0.3147    2.6770 H   0  0  0  0  0  0
   -1.3654   -0.5540    1.9198 H   0  0  0  0  0  0
    0.7430   -2.6021    1.8691 H   0  0  0  0  0  0
   -0.8674   -2.6880    2.5134 H   0  0  0  0  0  0
   -0.6301   -3.9476    0.3840 H   0  0  0  0  0  0
   -1.8251   -2.7046    0.2228 H   0  0  0  0  0  0
    1.0776   -2.6187   -0.7126 H   0  0  0  0  0  0
   -0.3156   -2.7022   -1.7457 H   0  0  0  0  0  0
   -0.9344   -0.5612   -1.3163 H   0  0  0  0  0  0
    0.6828   -0.3333   -1.6669 H   0  0  0  0  0  0
   -4.4085    3.8318    0.0132 H   0  0  0  0  0  0
   -1.9948    3.4794    0.2475 H   0  0  0  0  0  0
   -2.6156   -0.7672    0.0992 H   0  0  0  0  0  0
   -5.0031   -0.4234   -0.1271 H   0  0  0  0  0  0
    1.1274    2.4393    0.7022 H   0  0  0  0  0  0
    3.9388    1.8914    0.3397 H   0  0  0  0  0  0
    3.1751    3.3851    0.7897 H   0  0  0  0  0  0
    2.9217    2.5320    3.1721 H   0  0  0  0  0  0
    3.7865    1.0839    2.7212 H   0  0  0  0  0  0
    5.5840    2.9147    1.9871 H   0  0  0  0  0  0
    7.3457    3.6692    3.3292 H   0  0  0  0  0  0
    8.4299    3.7044    5.5036 H   0  0  0  0  0  0
    4.9262    1.9549    7.2863 H   0  0  0  0  0  0
    3.8347    1.9173    5.1087 H   0  0  0  0  0  0
    8.8433    3.2361    9.1138 H   0  0  0  0  0  0
    8.6556    4.3791    7.7886 H   0  0  0  0  0  0
    9.3401    2.7644    7.4923 H   0  0  0  0  0  0
   -6.8593    0.9548   -0.2764 H   0  0  0  0  0  0
   -6.3278    2.1582   -2.3914 H   0  0  0  0  0  0
   -6.3624    3.6946   -1.5308 H   0  0  0  0  0  0
   -7.8239    2.7259   -1.6646 H   0  0  0  0  0  0
   -6.7574    2.1029    1.9319 H   0  0  0  0  0  0
   -8.0836    2.6904    0.9401 H   0  0  0  0  0  0
   -6.6282    3.6608    1.1202 H   0  0  0  0  0  0
  1  2  1  0  0  0
  1  6  1  0  0  0
  1 13  1  0  0  0
  1 14  1  0  0  0
  2  3  1  0  0  0
  2 31  1  0  0  0
  2 32  1  0  0  0
  3  4  1  0  0  0
  3 33  1  0  0  0
  3 34  1  0  0  0
  4  5  1  0  0  0
  4 35  1  0  0  0
  4 36  1  0  0  0
  5  6  1  0  0  0
  5 37  1  0  0  0
  5 38  1  0  0  0
  6 39  1  0  0  0
  6 40  1  0  0  0
  7  8  2  0  0  0
  7 12  1  0  0  0
  7 28  1  0  0  0
  8  9  1  0  0  0
  8 41  1  0  0  0
  9 10  2  0  0  0
  9 42  1  0  0  0
 10 11  1  0  0  0
 10 13  1  0  0  0
 11 12  2  0  0  0
 11 43  1  0  0  0
 12 44  1  0  0  0
 14 15  1  0  0  0
 14 16  2  0  0  0
 15 17  1  0  0  0
 15 45  1  0  0  0
 17 18  1  0  0  0
 17 46  1  0  0  0
 17 47  1  0  0  0
 18 19  1  0  0  0
 18 48  1  0  0  0
 18 49  1  0  0  0
 19 20  1  0  0  0
 19 50  1  0  0  0
 20 21  2  0  0  0
 20 25  1  0  0  0
 21 22  1  0  0  0
 21 51  1  0  0  0
 22 23  2  0  0  0
 22 52  1  0  0  0
 23 24  1  0  0  0
 23 26  1  0  0  0
 24 25  2  0  0  0
 24 53  1  0  0  0
 25 54  1  0  0  0
 26 27  1  0  0  0
 27 55  1  0  0  0
 27 56  1  0  0  0
 27 57  1  0  0  0
 28 29  1  0  0  0
 28 30  1  0  0  0
 28 58  1  0  0  0
 29 59  1  0  0  0
 29 60  1  0  0  0
 29 61  1  0  0  0
 30 62  1  0  0  0
 30 63  1  0  0  0
 30 64  1  0  0  0
M  END
> <chembl_id>
CHEMBL205513

> <chembl_pref_name>
None

> <s_m_source_file>
sdf/inactives_sanitized.sdf

> <i_m_source_file_index>
464

> <i_lp_mmshare_version>
49012

> <i_m_ct_stereo_status>
1

> <i_f3d_flags>
0

> <s_epik_input>
W0NIM11bQ0hdKFtDSDNdKWMxW2NIXVtjSF1jKFtjSF1bY0hdMSlPQzIoW0NIMl1bQ0gyXVtDSDJdW0NIMl1bQ0gyXTIpQyg9TylbTkhdW0NIMl1bQ0gyXVtOSF1jM1tjSF1bY0hdYyhbY0hdW2NIXTMpT1tDSDNd

> <s_epik_cmdline>
J2VwaWtfcHl0aG9uJywgJy1waHQnLCAnMC41JywgJy1waCcsICc3LjUnLCAnLW50JywgJy1tYScsICcyMDAnLCAnLWltYWUnLCAnPGluZmlsZS5tYWU+JywgJy1vbWFlJywgJzxvdXRmaWxlLm1hZT4n

> <r_lp_tautomer_probability>
1

> <r_epik_Ionization_Penalty>
  0.0016

> <r_epik_Ionization_Penalty_Charging>
  0.0000

> <r_epik_Ionization_Penalty_Neutral>
  0.0016

> <r_epik_State_Penalty>
 -0.0000

> <r_epik_Charging_Adjusted_Penalty>
0

> <i_epik_Tot_Q>
0

> <i_epik_Tot_abs_Q>
0

> <s_lp_Force_Field>
OPLS3e

> <r_lp_Energy>
47.21513

> <b_lp_Chiralities_Consistent>
1

> <s_lp_Variant>
sdf/inactives_sanitized.sdf:464-1

$$$$
sdf/inactives_sanitized.sdf:465
                    3D
 Schrodinger Suite 2020-1.
 53 56  0  0  1  0            999 V2000
    0.0182    2.3720   -4.6863 C   0  0  0  0  0  0
    1.4510    2.6879   -4.2950 C   0  0  0  0  0  0
    0.4643    3.8051   -4.5604 C   0  0  0  0  0  0
   -0.0151   -3.2053    1.6620 C   0  0  0  0  0  0
    0.3942   -2.6305    0.2861 C   0  0  0  0  0  0
   -0.2577   -1.3281    0.1002 N   0  0  0  0  0  0
   -1.7229   -1.3770    0.1811 C   0  0  0  0  0  0
   -2.1273   -1.9315    1.5641 C   0  0  0  0  0  0
   -1.4519   -3.1696    1.9936 N   0  0  0  0  0  0
    0.4007   -0.1354    0.1548 C   0  0  0  0  0  0
    1.9437   -0.0817   -0.0675 C   0  0  2  0  0  0
   -0.2058    0.9356    0.2504 O   0  0  0  0  0  0
    2.6262   -0.2096    1.3220 C   0  0  0  0  0  0
    4.1478    0.0044    1.2426 C   0  0  0  0  0  0
    4.4993    1.3617    0.6132 C   0  0  0  0  0  0
    3.9316    1.4999   -0.8102 C   0  0  0  0  0  0
    2.4095    1.1965   -0.8618 C   0  0  1  0  0  0
    1.9407    1.2376   -2.3394 C   0  0  0  0  0  0
    1.8623    2.4515   -2.9136 N   0  0  0  0  0  0
    1.6136    0.2052   -2.9274 O   0  0  0  0  0  0
    2.4900    2.4126   -5.3036 C   0  0  0  0  0  0
    3.3060    2.1965   -6.0950 N   0  0  0  0  0  0
   -2.0347   -4.0107    2.9153 C   0  0  0  0  0  0
   -1.1528   -5.3533    3.6013 S   0  0  0  0  0  0
   -2.5615   -5.7575    4.5332 C   0  0  0  0  0  0
   -3.5668   -4.8435    4.2374 C   0  0  0  0  0  0
   -3.2678   -3.9058    3.3597 N   0  0  0  0  0  0
   -2.5723   -6.8892    5.4419 C   0  0  0  0  0  0
   -2.5807   -7.7911    6.1661 N   0  0  0  0  0  0
   -0.1788    1.9719   -5.6813 H   0  0  0  0  0  0
   -0.6621    1.9700   -3.9344 H   0  0  0  0  0  0
    0.0889    4.3926   -3.7218 H   0  0  0  0  0  0
    0.5749    4.3991   -5.4681 H   0  0  0  0  0  0
    0.3947   -4.2087    1.7692 H   0  0  0  0  0  0
    0.4588   -2.5959    2.4333 H   0  0  0  0  0  0
    1.4776   -2.6176    0.1927 H   0  0  0  0  0  0
    0.0338   -3.3042   -0.4924 H   0  0  0  0  0  0
   -2.1993   -0.4157   -0.0164 H   0  0  0  0  0  0
   -2.0889   -2.0560   -0.5900 H   0  0  0  0  0  0
   -1.8568   -1.1898    2.3173 H   0  0  0  0  0  0
   -3.2112   -2.0364    1.6187 H   0  0  0  0  0  0
    2.2183   -0.9414   -0.6782 H   0  0  0  0  0  0
    2.2643    0.5656    2.0012 H   0  0  0  0  0  0
    2.4731   -1.2000    1.7527 H   0  0  0  0  0  0
    4.5807   -0.0593    2.2419 H   0  0  0  0  0  0
    4.6039   -0.8003    0.6636 H   0  0  0  0  0  0
    4.1141    2.1666    1.2414 H   0  0  0  0  0  0
    5.5826    1.4882    0.5913 H   0  0  0  0  0  0
    4.1555    2.5139   -1.1473 H   0  0  0  0  0  0
    4.4810    0.7635   -1.4006 H   0  0  0  0  0  0
    1.9556    2.0809   -0.4078 H   0  0  0  0  0  0
    2.2221    3.2481   -2.4087 H   0  0  0  0  0  0
   -4.5562   -4.8519    4.6716 H   0  0  0  0  0  0
  1  2  1  0  0  0
  1  3  1  0  0  0
  1 30  1  0  0  0
  1 31  1  0  0  0
  2  3  1  0  0  0
  2 19  1  0  0  0
  2 21  1  0  0  0
  3 32  1  0  0  0
  3 33  1  0  0  0
  4  5  1  0  0  0
  4  9  1  0  0  0
  4 34  1  0  0  0
  4 35  1  0  0  0
  5  6  1  0  0  0
  5 36  1  0  0  0
  5 37  1  0  0  0
  6  7  1  0  0  0
  6 10  1  0  0  0
  7  8  1  0  0  0
  7 38  1  0  0  0
  7 39  1  0  0  0
  8  9  1  0  0  0
  8 40  1  0  0  0
  8 41  1  0  0  0
  9 23  1  0  0  0
 10 11  1  0  0  0
 10 12  2  0  0  0
 11 13  1  0  0  0
 11 17  1  0  0  0
 11 42  1  0  0  0
 13 14  1  0  0  0
 13 43  1  0  0  0
 13 44  1  0  0  0
 14 15  1  0  0  0
 14 45  1  0  0  0
 14 46  1  0  0  0
 15 16  1  0  0  0
 15 47  1  0  0  0
 15 48  1  0  0  0
 16 17  1  0  0  0
 16 49  1  0  0  0
 16 50  1  0  0  0
 17 18  1  0  0  0
 17 51  1  0  0  0
 18 19  1  0  0  0
 18 20  2  0  0  0
 19 52  1  0  0  0
 21 22  3  0  0  0
 23 24  1  0  0  0
 23 27  2  0  0  0
 24 25  1  0  0  0
 25 26  2  0  0  0
 25 28  1  0  0  0
 26 27  1  0  0  0
 26 53  1  0  0  0
 28 29  3  0  0  0
M  END
> <chembl_id>
CHEMBL2070946

> <chembl_pref_name>
None

> <i_m_ct_stereo_status>
1

> <s_m_source_file>
sdf/inactives_sanitized.sdf

> <i_m_source_file_index>
465

> <i_lp_mmshare_version>
49012

> <i_f3d_flags>
0

> <s_epik_input>
W0NIMl0xW0NIMl1DMShDI04pW05IXUMoPU8pW0NAQEhdMltDSDJdW0NIMl1bQ0gyXVtDSDJdW0NASF0yQyg9TylOM1tDSDJdW0NIMl1OKFtDSDJdW0NIMl0zKWM0c2MoW2NIXW40KUMjTg==

> <s_epik_cmdline>
J2VwaWtfcHl0aG9uJywgJy1waHQnLCAnMC41JywgJy1waCcsICc3LjUnLCAnLW50JywgJy1tYScsICcyMDAnLCAnLWltYWUnLCAnPGluZmlsZS5tYWU+JywgJy1vbWFlJywgJzxvdXRmaWxlLm1hZT4n

> <r_lp_tautomer_probability>
1

> <r_epik_Ionization_Penalty>
  0.0000

> <r_epik_Ionization_Penalty_Charging>
  0.0000

> <r_epik_Ionization_Penalty_Neutral>
  0.0000

> <r_epik_State_Penalty>
 -0.0000

> <r_epik_Charging_Adjusted_Penalty>
0

> <i_epik_Tot_Q>
0

> <i_epik_Tot_abs_Q>
0

> <s_lp_Force_Field>
OPLS3e

> <r_lp_Energy>
56.12853

> <b_lp_Chiralities_Consistent>
1

> <s_lp_Variant>
sdf/inactives_sanitized.sdf:465-1

$$$$
sdf/inactives_sanitized.sdf:466
                    3D
 Schrodinger Suite 2020-1.
 56 56  0  0  1  0            999 V2000
   -0.8113    4.7922   -1.5579 C   0  0  0  0  0  0
   -0.7828    3.5683   -0.7989 O   0  0  0  0  0  0
   -1.5196    4.5960   -2.9212 C   0  0  0  0  0  0
    0.6132    5.3696   -1.7509 C   0  0  0  0  0  0
   -1.6391    5.7613   -0.6894 C   0  0  0  0  0  0
   -0.1539    2.4219   -1.1749 C   0  0  0  0  0  0
   -0.3270    1.4725   -0.1710 N   0  0  0  0  0  0
    0.4663    2.2640   -2.2278 O   0  0  0  0  0  0
    0.1939    0.0942   -0.1929 C   0  0  2  0  0  0
    1.7221    0.1101   -0.0682 C   0  0  0  0  0  0
    2.3362   -0.5685    0.8117 N   0  0  0  0  0  0
   -0.2876   -0.7482   -1.4055 C   0  0  0  0  0  0
   -0.1031   -2.2726   -1.2302 C   0  0  0  0  0  0
   -0.6656   -3.1169   -2.3898 C   0  0  0  0  0  0
    0.0792   -2.9355   -3.7215 C   0  0  0  0  0  0
    3.6711   -0.4186    0.7347 N   0  0  0  0  0  0
    4.5174   -1.0432    1.5728 C   0  0  0  0  0  0
    4.1845   -1.8766    2.4203 O   0  0  0  0  0  0
    5.7815   -0.6353    1.3747 N   0  0  0  0  0  0
    6.9694   -1.1810    2.0369 C   0  0  0  0  0  0
    8.1031   -1.5529    1.0847 C   0  0  0  0  0  0
    9.4250   -1.3060    1.4680 C   0  0  0  0  0  0
   10.4734   -1.6153    0.6054 C   0  0  0  0  0  0
   10.1992   -2.1685   -0.6431 C   0  0  0  0  0  0
    8.8862   -2.4159   -1.0365 C   0  0  0  0  0  0
    7.8376   -2.1067   -0.1740 C   0  0  0  0  0  0
   -1.6580    5.5469   -3.4372 H   0  0  0  0  0  0
   -2.5048    4.1460   -2.7932 H   0  0  0  0  0  0
   -0.9550    3.9481   -3.5912 H   0  0  0  0  0  0
    1.2301    4.7424   -2.3943 H   0  0  0  0  0  0
    1.1342    5.4627   -0.7973 H   0  0  0  0  0  0
    0.5818    6.3606   -2.2049 H   0  0  0  0  0  0
   -1.7369    6.7403   -1.1606 H   0  0  0  0  0  0
   -1.1800    5.9131    0.2887 H   0  0  0  0  0  0
   -2.6465    5.3800   -0.5142 H   0  0  0  0  0  0
   -0.8801    1.7397    0.6302 H   0  0  0  0  0  0
   -0.2273   -0.3624    0.7053 H   0  0  0  0  0  0
    2.2124    0.7293   -0.8184 H   0  0  0  0  0  0
   -1.3466   -0.5470   -1.5757 H   0  0  0  0  0  0
    0.2193   -0.4189   -2.3137 H   0  0  0  0  0  0
   -0.5959   -2.5829   -0.3076 H   0  0  0  0  0  0
    0.9535   -2.5085   -1.0952 H   0  0  0  0  0  0
   -0.6202   -4.1698   -2.1085 H   0  0  0  0  0  0
   -1.7238   -2.8919   -2.5302 H   0  0  0  0  0  0
   -0.3236   -3.6031   -4.4834 H   0  0  0  0  0  0
    1.1408   -3.1605   -3.6147 H   0  0  0  0  0  0
   -0.0128   -1.9173   -4.0995 H   0  0  0  0  0  0
    3.9973    0.2281    0.0314 H   0  0  0  0  0  0
    5.9357    0.1752    0.7929 H   0  0  0  0  0  0
    7.3113   -0.4227    2.7432 H   0  0  0  0  0  0
    6.7347   -2.0639    2.6351 H   0  0  0  0  0  0
    9.6434   -0.8741    2.4340 H   0  0  0  0  0  0
   11.4945   -1.4257    0.9023 H   0  0  0  0  0  0
   11.0124   -2.4075   -1.3124 H   0  0  0  0  0  0
    8.6824   -2.8450   -2.0064 H   0  0  0  0  0  0
    6.8220   -2.3026   -0.4862 H   0  0  0  0  0  0
  1  4  1  0  0  0
  1  5  1  0  0  0
  1  3  1  0  0  0
  1  2  1  0  0  0
  2  6  1  0  0  0
  3 27  1  0  0  0
  3 28  1  0  0  0
  3 29  1  0  0  0
  4 30  1  0  0  0
  4 31  1  0  0  0
  4 32  1  0  0  0
  5 33  1  0  0  0
  5 34  1  0  0  0
  5 35  1  0  0  0
  6  7  1  0  0  0
  6  8  2  0  0  0
  7  9  1  0  0  0
  7 36  1  0  0  0
  9 10  1  0  0  0
  9 12  1  0  0  0
  9 37  1  0  0  0
 10 11  2  0  0  0
 10 38  1  0  0  0
 11 16  1  0  0  0
 12 13  1  0  0  0
 12 39  1  0  0  0
 12 40  1  0  0  0
 13 14  1  0  0  0
 13 41  1  0  0  0
 13 42  1  0  0  0
 14 15  1  0  0  0
 14 43  1  0  0  0
 14 44  1  0  0  0
 15 45  1  0  0  0
 15 46  1  0  0  0
 15 47  1  0  0  0
 16 17  1  0  0  0
 16 48  1  0  0  0
 17 18  2  0  0  0
 17 19  1  0  0  0
 19 20  1  0  0  0
 19 49  1  0  0  0
 20 21  1  0  0  0
 20 50  1  0  0  0
 20 51  1  0  0  0
 21 22  2  0  0  0
 21 26  1  0  0  0
 22 23  1  0  0  0
 22 52  1  0  0  0
 23 24  2  0  0  0
 23 53  1  0  0  0
 24 25  1  0  0  0
 24 54  1  0  0  0
 25 26  2  0  0  0
 25 55  1  0  0  0
 26 56  1  0  0  0
M  END
> <chembl_id>
CHEMBL204592

> <chembl_pref_name>
None

> <i_m_ct_stereo_status>
1

> <s_m_source_file>
sdf/inactives_sanitized.sdf

> <i_m_source_file_index>
466

> <i_lp_mmshare_version>
49012

> <i_f3d_flags>
0

> <s_epik_input>
W0NIM11DKFtDSDNdKShbQ0gzXSlPQyg9TylbTkhdW0NAQEhdKFtDSDJdW0NIMl1bQ0gyXVtDSDNdKS9bQ0hdPU4vW05IXUMoPU8pW05IXVtDSDJdYzFbY0hdW2NIXVtjSF1bY0hdW2NIXTE=

> <s_epik_cmdline>
J2VwaWtfcHl0aG9uJywgJy1waHQnLCAnMC41JywgJy1waCcsICc3LjUnLCAnLW50JywgJy1tYScsICcyMDAnLCAnLWltYWUnLCAnPGluZmlsZS5tYWU+JywgJy1vbWFlJywgJzxvdXRmaWxlLm1hZT4n

> <r_lp_tautomer_probability>
1

> <r_epik_Ionization_Penalty>
  0.0001

> <r_epik_Ionization_Penalty_Charging>
  0.0000

> <r_epik_Ionization_Penalty_Neutral>
  0.0001

> <r_epik_State_Penalty>
 -0.0000

> <r_epik_Charging_Adjusted_Penalty>
0

> <i_epik_Tot_Q>
0

> <i_epik_Tot_abs_Q>
0

> <s_epik_Chemistry_Notes>
This compound has an ester and may undergo hydrolysis at high or low pH. This compound has an imine and may undergo hydrolysis.

> <s_lp_Force_Field>
OPLS3e

> <r_lp_Energy>
27.818787

> <b_lp_Chiralities_Consistent>
1

> <s_lp_Variant>
sdf/inactives_sanitized.sdf:466-1

$$$$
sdf/inactives_sanitized.sdf:467
                    3D
 Schrodinger Suite 2020-1.
 44 43  0  0  1  0            999 V2000
   -0.6030    4.6993   -1.6601 C   0  0  0  0  0  0
   -0.6522    3.5389   -0.8087 O   0  0  0  0  0  0
   -1.2923    4.4339   -3.0219 C   0  0  0  0  0  0
    0.8536    5.1865   -1.8595 C   0  0  0  0  0  0
   -1.3995    5.7731   -0.8906 C   0  0  0  0  0  0
   -0.0904    2.3323   -1.0890 C   0  0  0  0  0  0
   -0.3423    1.4697   -0.0256 N   0  0  0  0  0  0
    0.5320    2.0595   -2.1166 O   0  0  0  0  0  0
    0.0642    0.0539    0.0489 C   0  0  2  0  0  0
    1.5885   -0.0484    0.1618 C   0  0  0  0  0  0
    2.1604   -0.6182    1.1494 N   0  0  0  0  0  0
   -0.4769   -0.8453   -1.0955 C   0  0  0  0  0  0
   -2.0099   -0.8063   -1.2610 C   0  0  0  0  0  0
   -2.5168   -1.7495   -2.3662 C   0  0  0  0  0  0
   -4.0415   -1.7090   -2.5362 C   0  0  0  0  0  0
    3.4432   -0.6174    1.0560 N   0  0  0  0  0  0
    4.1030   -0.2119    2.0785 C   0  0  0  0  0  0
    3.5971    0.2366    3.3295 N   0  0  0  0  0  0
    5.5135   -0.1803    2.0696 N   0  0  0  0  0  0
   -1.3775    5.3491   -3.6091 H   0  0  0  0  0  0
   -2.2993    4.0381   -2.8843 H   0  0  0  0  0  0
   -0.7447    3.7144   -3.6302 H   0  0  0  0  0  0
    1.4498    4.4796   -2.4364 H   0  0  0  0  0  0
    1.3576    5.3261   -0.9023 H   0  0  0  0  0  0
    0.8853    6.1401   -2.3882 H   0  0  0  0  0  0
   -1.4365    6.7156   -1.4384 H   0  0  0  0  0  0
   -0.9555    5.9782    0.0847 H   0  0  0  0  0  0
   -2.4285    5.4565   -0.7135 H   0  0  0  0  0  0
   -0.8895    1.8290    0.7429 H   0  0  0  0  0  0
   -0.3814   -0.3100    0.9768 H   0  0  0  0  0  0
    2.1138    0.3923   -0.6854 H   0  0  0  0  0  0
   -0.0109   -0.5713   -2.0438 H   0  0  0  0  0  0
   -0.1730   -1.8775   -0.9104 H   0  0  0  0  0  0
   -2.4818   -1.0710   -0.3136 H   0  0  0  0  0  0
   -2.3287    0.2121   -1.4875 H   0  0  0  0  0  0
   -2.0458   -1.4877   -3.3148 H   0  0  0  0  0  0
   -2.2099   -2.7727   -2.1447 H   0  0  0  0  0  0
   -4.3628   -2.3863   -3.3279 H   0  0  0  0  0  0
   -4.3843   -0.7074   -2.7985 H   0  0  0  0  0  0
   -4.5498   -2.0084   -1.6190 H   0  0  0  0  0  0
    2.6146    0.0907    3.5102 H   0  0  0  0  0  0
    4.1478    0.0441    4.1531 H   0  0  0  0  0  0
    5.9828   -0.6416    1.3040 H   0  0  0  0  0  0
    5.9920   -0.3496    2.9419 H   0  0  0  0  0  0
  1  3  1  0  0  0
  1  2  1  0  0  0
  1  4  1  0  0  0
  1  5  1  0  0  0
  2  6  1  0  0  0
  3 20  1  0  0  0
  3 21  1  0  0  0
  3 22  1  0  0  0
  4 23  1  0  0  0
  4 24  1  0  0  0
  4 25  1  0  0  0
  5 26  1  0  0  0
  5 27  1  0  0  0
  5 28  1  0  0  0
  6  7  1  0  0  0
  6  8  2  0  0  0
  7  9  1  0  0  0
  7 29  1  0  0  0
  9 10  1  0  0  0
  9 12  1  0  0  0
  9 30  1  0  0  0
 10 11  2  0  0  0
 10 31  1  0  0  0
 11 16  1  0  0  0
 12 13  1  0  0  0
 12 32  1  0  0  0
 12 33  1  0  0  0
 13 14  1  0  0  0
 13 34  1  0  0  0
 13 35  1  0  0  0
 14 15  1  0  0  0
 14 36  1  0  0  0
 14 37  1  0  0  0
 15 38  1  0  0  0
 15 39  1  0  0  0
 15 40  1  0  0  0
 16 17  2  0  0  0
 17 18  1  0  0  0
 17 19  1  0  0  0
 18 41  1  0  0  0
 18 42  1  0  0  0
 19 43  1  0  0  0
 19 44  1  0  0  0
M  END
> <chembl_id>
CHEMBL381474

> <chembl_pref_name>
None

> <i_m_ct_stereo_status>
1

> <s_m_source_file>
sdf/inactives_sanitized.sdf

> <i_m_source_file_index>
467

> <i_lp_mmshare_version>
49012

> <i_f3d_flags>
0

> <s_epik_input>
W0NIM11DKFtDSDNdKShbQ0gzXSlPQyg9TylbTkhdW0NAQEhdKFtDSDJdW0NIMl1bQ0gyXVtDSDNdKS9bQ0hdPU4vTj1DKFtOSDJdKVtOSDJd

> <s_epik_cmdline>
J2VwaWtfcHl0aG9uJywgJy1waHQnLCAnMC41JywgJy1waCcsICc3LjUnLCAnLW50JywgJy1tYScsICcyMDAnLCAnLWltYWUnLCAnPGluZmlsZS5tYWU+JywgJy1vbWFlJywgJzxvdXRmaWxlLm1hZT4n

> <r_epik_Ionization_Penalty>
  0.0724

> <r_epik_Ionization_Penalty_Charging>
  0.0000

> <r_epik_Ionization_Penalty_Neutral>
  0.0724

> <r_epik_State_Penalty>
  0.0578

> <r_epik_Charging_Adjusted_Penalty>
0.0578492592890145

> <i_epik_Tot_Q>
0

> <i_epik_Tot_abs_Q>
0

> <s_epik_Chemistry_Notes>
This compound has an ester and may undergo hydrolysis at high or low pH. This compound has an imine and may undergo hydrolysis.

> <s_lp_Force_Field>
OPLS3e

> <r_lp_Energy>
7.055217

> <b_lp_Chiralities_Consistent>
1

> <s_lp_Variant>
sdf/inactives_sanitized.sdf:467-1

$$$$
sdf/inactives_sanitized.sdf:468
                    3D
 Schrodinger Suite 2020-1.
 43 44  0  0  1  0            999 V2000
    0.0403   -3.2134    0.2277 C   0  0  0  0  0  0
    0.5794   -4.4785    0.4661 C   0  0  0  0  0  0
    0.9488   -4.8464    1.7600 C   0  0  0  0  0  0
    0.7760   -3.9507    2.8145 C   0  0  0  0  0  0
    0.2384   -2.6857    2.5757 C   0  0  0  0  0  0
   -0.1261   -2.3025    1.2795 C   0  0  0  0  0  0
   -0.7023   -0.9054    1.0338 C   0  0  0  0  0  0
   -0.0810   -0.1675   -0.1856 C   0  0  2  0  0  0
    1.3860   -0.1637   -0.1360 N   0  0  0  0  0  0
   -0.6387    1.2679   -0.3006 C   0  0  0  0  0  0
   -0.3412    2.1093    0.5490 O   0  0  0  0  0  0
   -1.4627    1.5096   -1.3337 N   0  0  0  0  0  0
   -2.1325    2.7861   -1.5618 C   0  0  0  0  0  0
   -3.1251    3.1064   -0.5203 C   0  0  0  0  0  0
   -3.9046    3.3574    0.2971 N   0  0  0  0  0  0
    2.2125    0.1013   -1.1657 C   0  0  0  0  0  0
    1.8140    0.3794   -2.2982 O   0  0  0  0  0  0
    3.6904    0.0230   -0.8491 C   0  0  0  0  0  0
    0.7889   -5.5869   -0.8400 Cl  0  0  0  0  0  0
    4.6266    0.9434   -1.3790 C   0  0  0  0  0  0
    5.9842    0.8055   -1.0655 C   0  0  0  0  0  0
    6.4261   -0.2261   -0.2413 C   0  0  0  0  0  0
    5.5124   -1.1339    0.2832 C   0  0  0  0  0  0
    4.1583   -1.0108   -0.0187 C   0  0  0  0  0  0
    4.2210    2.1211   -2.2619 C   0  0  0  0  0  0
   -0.2452   -2.9456   -0.7788 H   0  0  0  0  0  0
    1.3667   -5.8245    1.9486 H   0  0  0  0  0  0
    1.0599   -4.2364    3.8166 H   0  0  0  0  0  0
    0.1129   -2.0022    3.4031 H   0  0  0  0  0  0
   -1.7843   -0.9946    0.9221 H   0  0  0  0  0  0
   -0.5388   -0.3038    1.9310 H   0  0  0  0  0  0
   -0.3713   -0.7186   -1.0828 H   0  0  0  0  0  0
    1.7886   -0.3737    0.7653 H   0  0  0  0  0  0
   -1.6876    0.7578   -1.9692 H   0  0  0  0  0  0
   -1.4075    3.5998   -1.6210 H   0  0  0  0  0  0
   -2.6500    2.7482   -2.5204 H   0  0  0  0  0  0
    6.7083    1.5041   -1.4594 H   0  0  0  0  0  0
    7.4766   -0.3202   -0.0083 H   0  0  0  0  0  0
    5.8534   -1.9357    0.9215 H   0  0  0  0  0  0
    3.4755   -1.7395    0.3959 H   0  0  0  0  0  0
    5.0253    2.8495   -2.3736 H   0  0  0  0  0  0
    3.3749    2.6527   -1.8251 H   0  0  0  0  0  0
    3.9253    1.7741   -3.2523 H   0  0  0  0  0  0
  1  6  2  0  0  0
  1  2  1  0  0  0
  1 26  1  0  0  0
  2 19  1  0  0  0
  2  3  2  0  0  0
  3  4  1  0  0  0
  3 27  1  0  0  0
  4  5  2  0  0  0
  4 28  1  0  0  0
  5  6  1  0  0  0
  5 29  1  0  0  0
  6  7  1  0  0  0
  7  8  1  0  0  0
  7 30  1  0  0  0
  7 31  1  0  0  0
  8  9  1  0  0  0
  8 10  1  0  0  0
  8 32  1  0  0  0
  9 16  1  0  0  0
  9 33  1  0  0  0
 10 11  2  0  0  0
 10 12  1  0  0  0
 12 13  1  0  0  0
 12 34  1  0  0  0
 13 14  1  0  0  0
 13 35  1  0  0  0
 13 36  1  0  0  0
 14 15  3  0  0  0
 16 17  2  0  0  0
 16 18  1  0  0  0
 18 20  2  0  0  0
 18 24  1  0  0  0
 20 21  1  0  0  0
 20 25  1  0  0  0
 21 22  2  0  0  0
 21 37  1  0  0  0
 22 23  1  0  0  0
 22 38  1  0  0  0
 23 24  2  0  0  0
 23 39  1  0  0  0
 24 40  1  0  0  0
 25 41  1  0  0  0
 25 42  1  0  0  0
 25 43  1  0  0  0
M  END
> <chembl_id>
CHEMBL572332

> <chembl_pref_name>
None

> <i_m_ct_stereo_status>
1

> <s_m_source_file>
sdf/inactives_sanitized.sdf

> <i_m_source_file_index>
468

> <i_lp_mmshare_version>
49012

> <i_f3d_flags>
0

> <s_epik_input>
W2NIXTFbY0hdW2NIXWMoW2NIXWMxQ2wpW0NIMl1bQ0BASF0oQyg9TylbTkhdW0NIMl1DI04pW05IXUMoPU8pYzJjKFtDSDNdKVtjSF1bY0hdW2NIXVtjSF0y

> <s_epik_cmdline>
J2VwaWtfcHl0aG9uJywgJy1waHQnLCAnMC41JywgJy1waCcsICc3LjUnLCAnLW50JywgJy1tYScsICcyMDAnLCAnLWltYWUnLCAnPGluZmlsZS5tYWU+JywgJy1vbWFlJywgJzxvdXRmaWxlLm1hZT4n

> <r_lp_tautomer_probability>
1

> <r_epik_Ionization_Penalty>
  0.0000

> <r_epik_Ionization_Penalty_Charging>
  0.0000

> <r_epik_Ionization_Penalty_Neutral>
  0.0000

> <r_epik_State_Penalty>
 -0.0000

> <r_epik_Charging_Adjusted_Penalty>
0

> <i_epik_Tot_Q>
0

> <i_epik_Tot_abs_Q>
0

> <s_lp_Force_Field>
OPLS3e

> <r_lp_Energy>
23.044078

> <b_lp_Chiralities_Consistent>
1

> <s_lp_Variant>
sdf/inactives_sanitized.sdf:468-1

$$$$
sdf/inactives_sanitized.sdf:469
                    3D
 Schrodinger Suite 2020-1.
 56 56  0  0  1  0            999 V2000
   -1.2533    2.8118    2.5226 C   0  0  0  0  0  0
   -1.0507    0.7645    1.1244 C   0  0  0  0  0  0
   -0.2824    0.3540    0.0418 N   0  0  0  0  0  0
   -0.3491   -1.0276   -0.4682 C   0  0  2  0  0  0
    1.0869   -1.5452   -0.3806 C   0  0  0  0  0  0
    1.6765   -1.7031    1.0828 C   0  0  0  0  0  0
    1.7766   -1.8384   -1.3620 O   0  0  0  0  0  0
    0.9430   -1.8611    2.0600 O   0  0  0  0  0  0
    3.0182   -1.5921    1.1066 N   0  0  0  0  0  0
   -0.7237    2.0507    1.4209 O   0  0  0  0  0  0
   -1.8808    0.0844    1.7302 O   0  0  0  0  0  0
   -0.9189   -1.0910   -1.9101 C   0  0  0  0  0  0
   -2.3850   -0.6237   -2.0124 C   0  0  0  0  0  0
   -2.9526   -0.7404   -3.4376 C   0  0  0  0  0  0
   -4.4106   -0.2726   -3.5397 C   0  0  0  0  0  0
   -0.9285    2.1456    3.8835 C   0  0  0  0  0  0
   -2.7771    3.0372    2.3650 C   0  0  0  0  0  0
   -0.5227    4.1674    2.4364 C   0  0  0  0  0  0
    3.8344   -1.5472    2.3252 C   0  0  2  0  0  0
    3.5843   -0.3183    3.2122 C   0  0  0  0  0  0
    3.6212   -0.4578    4.6035 C   0  0  0  0  0  0
    3.3722    0.6390    5.4246 C   0  0  0  0  0  0
    3.0831    1.8767    4.8549 C   0  0  0  0  0  0
    3.0394    2.0276    3.4713 C   0  0  0  0  0  0
    3.2871    0.9312    2.6505 C   0  0  0  0  0  0
    5.3255   -1.6711    1.9709 C   0  0  0  0  0  0
    0.3031    1.0231   -0.4364 H   0  0  0  0  0  0
   -0.9768   -1.6701    0.1543 H   0  0  0  0  0  0
    3.5091   -1.4741    0.2321 H   0  0  0  0  0  0
   -0.3108   -0.4758   -2.5767 H   0  0  0  0  0  0
   -0.8534   -2.1157   -2.2814 H   0  0  0  0  0  0
   -2.4644    0.4132   -1.6826 H   0  0  0  0  0  0
   -3.0002   -1.2122   -1.3298 H   0  0  0  0  0  0
   -2.3408   -0.1542   -4.1248 H   0  0  0  0  0  0
   -2.8858   -1.7754   -3.7760 H   0  0  0  0  0  0
   -4.7796   -0.3690   -4.5612 H   0  0  0  0  0  0
   -4.5120    0.7736   -3.2489 H   0  0  0  0  0  0
   -5.0621   -0.8640   -2.8953 H   0  0  0  0  0  0
   -1.1965    2.7939    4.7184 H   0  0  0  0  0  0
    0.1349    1.9219    3.9708 H   0  0  0  0  0  0
   -1.4648    1.2072    4.0230 H   0  0  0  0  0  0
   -3.3430    2.1104    2.4598 H   0  0  0  0  0  0
   -3.0152    3.4606    1.3884 H   0  0  0  0  0  0
   -3.1574    3.7241    3.1220 H   0  0  0  0  0  0
   -0.8379    4.8453    3.2307 H   0  0  0  0  0  0
   -0.7151    4.6656    1.4849 H   0  0  0  0  0  0
    0.5581    4.0445    2.5202 H   0  0  0  0  0  0
    3.5747   -2.4399    2.9001 H   0  0  0  0  0  0
    3.8408   -1.4164    5.0510 H   0  0  0  0  0  0
    3.4010    0.5298    6.4988 H   0  0  0  0  0  0
    2.8884    2.7266    5.4922 H   0  0  0  0  0  0
    2.8115    2.9897    3.0370 H   0  0  0  0  0  0
    3.2484    1.0567    1.5783 H   0  0  0  0  0  0
    5.9398   -1.7465    2.8692 H   0  0  0  0  0  0
    5.6747   -0.8089    1.4012 H   0  0  0  0  0  0
    5.5178   -2.5624    1.3722 H   0  0  0  0  0  0
  1 10  1  0  0  0
  1 16  1  0  0  0
  1 17  1  0  0  0
  1 18  1  0  0  0
  2 10  1  0  0  0
  2 11  2  0  0  0
  2  3  1  0  0  0
  3  4  1  0  0  0
  3 27  1  0  0  0
  4  5  1  0  0  0
  4 12  1  0  0  0
  4 28  1  0  0  0
  5  6  1  0  0  0
  5  7  2  0  0  0
  6  8  2  0  0  0
  6  9  1  0  0  0
  9 19  1  0  0  0
  9 29  1  0  0  0
 12 13  1  0  0  0
 12 30  1  0  0  0
 12 31  1  0  0  0
 13 14  1  0  0  0
 13 32  1  0  0  0
 13 33  1  0  0  0
 14 15  1  0  0  0
 14 34  1  0  0  0
 14 35  1  0  0  0
 15 36  1  0  0  0
 15 37  1  0  0  0
 15 38  1  0  0  0
 16 39  1  0  0  0
 16 40  1  0  0  0
 16 41  1  0  0  0
 17 42  1  0  0  0
 17 43  1  0  0  0
 17 44  1  0  0  0
 18 45  1  0  0  0
 18 46  1  0  0  0
 18 47  1  0  0  0
 19 20  1  0  0  0
 19 26  1  0  0  0
 19 48  1  0  0  0
 20 21  2  0  0  0
 20 25  1  0  0  0
 21 22  1  0  0  0
 21 49  1  0  0  0
 22 23  2  0  0  0
 22 50  1  0  0  0
 23 24  1  0  0  0
 23 51  1  0  0  0
 24 25  2  0  0  0
 24 52  1  0  0  0
 25 53  1  0  0  0
 26 54  1  0  0  0
 26 55  1  0  0  0
 26 56  1  0  0  0
M  END
> <chembl_id>
CHEMBL163555

> <chembl_pref_name>
None

> <i_m_ct_stereo_status>
1

> <s_m_source_file>
sdf/inactives_sanitized.sdf

> <i_m_source_file_index>
469

> <i_lp_mmshare_version>
49012

> <i_f3d_flags>
0

> <s_epik_input>
W0NIM11DKFtDSDNdKShbQ0gzXSlPQyg9TylbTkhdW0NAQEhdKFtDSDJdW0NIMl1bQ0gyXVtDSDNdKUMoPU8pQyg9TylbTkhdW0NAQEhdKFtDSDNdKWMxW2NIXVtjSF1bY0hdW2NIXVtjSF0x

> <s_epik_cmdline>
J2VwaWtfcHl0aG9uJywgJy1waHQnLCAnMC41JywgJy1waCcsICc3LjUnLCAnLW50JywgJy1tYScsICcyMDAnLCAnLWltYWUnLCAnPGluZmlsZS5tYWU+JywgJy1vbWFlJywgJzxvdXRmaWxlLm1hZT4n

> <r_lp_tautomer_probability>
1

> <r_epik_Ionization_Penalty>
  0.0000

> <r_epik_Ionization_Penalty_Charging>
  0.0000

> <r_epik_Ionization_Penalty_Neutral>
  0.0000

> <r_epik_State_Penalty>
 -0.0000

> <r_epik_Charging_Adjusted_Penalty>
0

> <i_epik_Tot_Q>
0

> <i_epik_Tot_abs_Q>
0

> <s_epik_Chemistry_Notes>
This compound has an ester and may undergo hydrolysis at high or low pH.

> <s_lp_Force_Field>
OPLS3e

> <r_lp_Energy>
22.820196

> <b_lp_Chiralities_Consistent>
1

> <s_lp_Variant>
sdf/inactives_sanitized.sdf:469-1

$$$$
sdf/inactives_sanitized.sdf:470
                    3D
 Schrodinger Suite 2020-1.
 36 39  0  0  1  0            999 V2000
   -2.7841   -2.1981   -5.0112 C   0  0  0  0  0  0
   -1.7112   -3.0843   -4.9589 C   0  0  0  0  0  0
   -0.7355   -3.0014   -3.9650 C   0  0  0  0  0  0
   -2.9292   -1.1854   -4.0644 C   0  0  0  0  0  0
   -1.9734   -1.0648   -3.0424 C   0  0  0  0  0  0
   -0.8811   -1.9844   -3.0152 C   0  0  0  0  0  0
   -0.1011   -1.6385   -1.9329 N   0  0  0  0  0  0
   -1.8062   -0.1720   -1.9297 C   0  0  0  0  0  0
   -0.6431   -0.5597   -1.2772 C   0  0  0  0  0  0
   -0.0558    0.0887   -0.0264 C   0  0  2  0  0  0
   -0.6960    1.4940    0.0679 N   0  3  0  0  0  0
   -2.2322    1.4588   -0.0574 C   0  0  0  0  0  0
   -2.6353    1.0270   -1.4891 C   0  0  0  0  0  0
    1.4800    0.2750   -0.0583 C   0  0  0  0  0  0
    2.0628    0.9059    1.1947 C   0  0  0  0  0  0
    1.5593    1.2073    2.4603 C   0  0  0  0  0  0
    2.4574    1.7621    3.2581 N   0  0  0  0  0  0
    3.5472    1.8196    2.5340 C   0  0  0  0  0  0
    3.3688    1.3115    1.2761 N   0  0  0  0  0  0
   -3.5161   -2.2979   -5.7995 H   0  0  0  0  0  0
   -1.6323   -3.8568   -5.7104 H   0  0  0  0  0  0
    0.0924   -3.6949   -3.9396 H   0  0  0  0  0  0
   -3.7676   -0.5066   -4.1196 H   0  0  0  0  0  0
    0.7498   -2.0864   -1.6242 H   0  0  0  0  0  0
   -0.3732   -0.4382    0.8751 H   0  0  0  0  0  0
   -0.4351    1.9137    0.9489 H   0  0  0  0  0  0
   -2.5711    0.7593    0.7090 H   0  0  0  0  0  0
   -2.5829    2.4613    0.1899 H   0  0  0  0  0  0
   -2.4671    1.8493   -2.1856 H   0  0  0  0  0  0
   -3.7026    0.8053   -1.5225 H   0  0  0  0  0  0
    1.9490   -0.6984   -0.2083 H   0  0  0  0  0  0
    1.7521    0.8645   -0.9359 H   0  0  0  0  0  0
    0.5505    1.0245    2.8002 H   0  0  0  0  0  0
    4.5094    2.2087    2.8333 H   0  0  0  0  0  0
    4.0660    1.2497    0.5474 H   0  0  0  0  0  0
   -0.3209    2.0819   -0.6627 H   0  0  0  0  0  0
  1  4  2  0  0  0
  1  2  1  0  0  0
  1 20  1  0  0  0
  2  3  2  0  0  0
  2 21  1  0  0  0
  3  6  1  0  0  0
  3 22  1  0  0  0
  4  5  1  0  0  0
  4 23  1  0  0  0
  5  6  2  0  0  0
  5  8  1  0  0  0
  6  7  1  0  0  0
  7  9  1  0  0  0
  7 24  1  0  0  0
  8 13  1  0  0  0
  8  9  2  0  0  0
  9 10  1  0  0  0
 10 11  1  0  0  0
 10 14  1  0  0  0
 10 25  1  0  0  0
 11 12  1  0  0  0
 11 26  1  0  0  0
 11 36  1  0  0  0
 12 13  1  0  0  0
 12 27  1  0  0  0
 12 28  1  0  0  0
 13 29  1  0  0  0
 13 30  1  0  0  0
 14 15  1  0  0  0
 14 31  1  0  0  0
 14 32  1  0  0  0
 15 16  2  0  0  0
 15 19  1  0  0  0
 16 17  1  0  0  0
 16 33  1  0  0  0
 17 18  2  0  0  0
 18 19  1  0  0  0
 18 34  1  0  0  0
 19 35  1  0  0  0
M  CHG  1  11   1
M  END
> <chembl_id>
CHEMBL495256

> <chembl_pref_name>
HAPLOSCLERIDAMINE

> <s_m_source_file>
sdf/inactives_sanitized.sdf

> <i_m_source_file_index>
470

> <i_lp_mmshare_version>
49012

> <i_m_ct_stereo_status>
1

> <i_f3d_flags>
0

> <s_epik_input>
W2NIXTFbY0hdW2NIXVtjSF1jKGMxMilbbkhdYzNjMltDSDJdW0NIMl1bTkhdW0NAQEhdM1tDSDJdYzRbY0hdW25IXVtjSF1uNA==

> <s_epik_cmdline>
J2VwaWtfcHl0aG9uJywgJy1waHQnLCAnMC41JywgJy1waCcsICc3LjUnLCAnLW50JywgJy1tYScsICcyMDAnLCAnLWltYWUnLCAnPGluZmlsZS5tYWU+JywgJy1vbWFlJywgJzxvdXRmaWxlLm1hZT4n

> <r_epik_Ionization_Penalty>
  0.1886

> <r_epik_Ionization_Penalty_Charging>
  0.1886

> <r_epik_Ionization_Penalty_Neutral>
  0.0000

> <r_epik_State_Penalty>
  0.5381

> <r_epik_Charging_Adjusted_Penalty>
0.726640652166463

> <i_epik_Tot_Q>
1

> <i_epik_Tot_abs_Q>
1

> <s_lp_Force_Field>
OPLS3e

> <r_lp_Energy>
23.260827

> <b_lp_Chiralities_Consistent>
1

> <s_lp_Variant>
sdf/inactives_sanitized.sdf:470-1

$$$$
sdf/inactives_sanitized.sdf:471
                    3D
 Schrodinger Suite 2020-1.
 25 26  0  0  1  0            999 V2000
   -1.4355    4.2956   -2.8623 C   0  0  0  0  0  0
   -0.9264    3.0817   -3.3156 C   0  0  0  0  0  0
   -0.5968    2.0613   -2.4255 C   0  0  0  0  0  0
   -1.6395    4.5472   -1.5054 C   0  0  0  0  0  0
   -1.3926    3.4568    0.7601 N   0  0  0  0  0  0
   -1.3090    3.5218   -0.6124 C   0  0  0  0  0  0
   -0.7837    2.2658   -1.0477 C   0  0  0  0  0  0
   -0.5574    1.4539    0.1214 C   0  0  0  0  0  0
   -0.9488    2.2348    1.1942 C   0  0  0  0  0  0
   -0.0031    0.0459    0.1541 C   0  0  0  0  0  0
    1.4988    0.0108   -0.1713 C   0  0  0  0  0  0
    2.0048   -1.4340   -0.1439 N   0  3  0  0  0  0
   -1.6799    5.0635   -3.5820 H   0  0  0  0  0  0
   -0.7853    2.9286   -4.3758 H   0  0  0  0  0  0
   -0.2043    1.1266   -2.7973 H   0  0  0  0  0  0
   -2.0359    5.4940   -1.1689 H   0  0  0  0  0  0
   -1.7236    4.1715    1.3925 H   0  0  0  0  0  0
   -0.9479    2.0193    2.2528 H   0  0  0  0  0  0
   -0.1730   -0.4091    1.1314 H   0  0  0  0  0  0
   -0.5477   -0.5857   -0.5495 H   0  0  0  0  0  0
    1.7297    0.3776   -1.1723 H   0  0  0  0  0  0
    2.1062    0.5475    0.5587 H   0  0  0  0  0  0
    2.9910   -1.4616   -0.3611 H   0  0  0  0  0  0
    1.5065   -1.9896   -0.8247 H   0  0  0  0  0  0
    1.8615   -1.8356    0.7718 H   0  0  0  0  0  0
  1  2  2  0  0  0
  1  4  1  0  0  0
  1 13  1  0  0  0
  2  3  1  0  0  0
  2 14  1  0  0  0
  3  7  2  0  0  0
  3 15  1  0  0  0
  4  6  2  0  0  0
  4 16  1  0  0  0
  5  6  1  0  0  0
  5  9  1  0  0  0
  5 17  1  0  0  0
  6  7  1  0  0  0
  7  8  1  0  0  0
  8  9  2  0  0  0
  8 10  1  0  0  0
  9 18  1  0  0  0
 10 11  1  0  0  0
 10 19  1  0  0  0
 10 20  1  0  0  0
 11 12  1  0  0  0
 11 21  1  0  0  0
 11 22  1  0  0  0
 12 23  1  0  0  0
 12 24  1  0  0  0
 12 25  1  0  0  0
M  CHG  1  12   1
M  END
> <chembl_id>
CHEMBL6640

> <chembl_pref_name>
TRYPTAMINE

> <s_m_source_file>
sdf/inactives_sanitized.sdf

> <i_m_source_file_index>
471

> <i_lp_mmshare_version>
49012

> <i_m_ct_stereo_status>
1

> <i_f3d_flags>
0

> <s_epik_input>
W2NIXTFbY0hdW2NIXVtjSF1jKGMxMiljKFtjSF1bbkhdMilbQ0gyXVtDSDJdW05IMl0=

> <s_epik_cmdline>
J2VwaWtfcHl0aG9uJywgJy1waHQnLCAnMC41JywgJy1waCcsICc3LjUnLCAnLW50JywgJy1tYScsICcyMDAnLCAnLWltYWUnLCAnPGluZmlsZS5tYWU+JywgJy1vbWFlJywgJzxvdXRmaWxlLm1hZT4n

> <r_lp_tautomer_probability>
1

> <r_epik_Ionization_Penalty>
  0.0046

> <r_epik_Ionization_Penalty_Charging>
  0.0046

> <r_epik_Ionization_Penalty_Neutral>
  0.0000

> <r_epik_State_Penalty>
 -0.0000

> <r_epik_Charging_Adjusted_Penalty>
0.00462258481642829

> <i_epik_Tot_Q>
1

> <i_epik_Tot_abs_Q>
1

> <s_lp_Force_Field>
OPLS3e

> <r_lp_Energy>
18.02226

> <b_lp_Chiralities_Consistent>
1

> <s_lp_Variant>
sdf/inactives_sanitized.sdf:471-1

$$$$
sdf/inactives_sanitized.sdf:472
                    3D
 Schrodinger Suite 2020-1.
 51 51  0  0  1  0            999 V2000
   -3.0515    3.9741    0.5642 C   0  0  0  0  0  0
   -1.8986    3.1347    0.7649 O   0  0  0  0  0  0
   -4.3035    3.3930    1.2674 C   0  0  0  0  0  0
   -3.3219    4.2103   -0.9424 C   0  0  0  0  0  0
   -2.6709    5.3124    1.2301 C   0  0  0  0  0  0
   -1.7813    1.8446    0.3491 C   0  0  0  0  0  0
   -0.5416    1.3611    0.7479 N   0  0  0  0  0  0
   -2.6395    1.2143   -0.2709 O   0  0  0  0  0  0
   -0.1036   -0.0238    0.5391 C   0  0  2  0  0  0
   -0.4950   -0.8156    1.7868 C   0  0  0  0  0  0
   -1.1706   -1.8884    1.7210 N   0  0  0  0  0  0
    1.4178   -0.0908    0.2608 C   0  0  0  0  0  0
    1.9312   -1.4809   -0.1728 C   0  0  0  0  0  0
    3.4336   -1.4882   -0.5054 C   0  0  0  0  0  0
    3.9459   -2.8720   -0.9272 C   0  0  0  0  0  0
   -1.4212   -2.4118    2.9350 N   0  0  0  0  0  0
   -2.1242   -3.5514    3.1083 C   0  0  0  0  0  0
   -2.5793   -4.2210    2.1753 O   0  0  0  0  0  0
   -2.3683   -3.9709    4.5437 C   0  0  0  0  0  0
   -3.3840   -4.8945    4.8335 C   0  0  0  0  0  0
   -3.6249   -5.2950    6.1452 C   0  0  0  0  0  0
   -2.8510   -4.7761    7.1788 C   0  0  0  0  0  0
   -1.8364   -3.8618    6.9117 C   0  0  0  0  0  0
   -1.5933   -3.4621    5.6003 C   0  0  0  0  0  0
   -5.1390    4.0930    1.2327 H   0  0  0  0  0  0
   -4.1022    3.1754    2.3172 H   0  0  0  0  0  0
   -4.6437    2.4659    0.8066 H   0  0  0  0  0  0
   -3.6394    3.3011   -1.4528 H   0  0  0  0  0  0
   -2.4279    4.5698   -1.4534 H   0  0  0  0  0  0
   -4.1063    4.9528   -1.0932 H   0  0  0  0  0  0
   -3.4721    6.0475    1.1430 H   0  0  0  0  0  0
   -1.7786    5.7454    0.7756 H   0  0  0  0  0  0
   -2.4583    5.1845    2.2926 H   0  0  0  0  0  0
    0.0510    1.9680    1.2951 H   0  0  0  0  0  0
   -0.6112   -0.4351   -0.3381 H   0  0  0  0  0  0
   -0.1249   -0.3749    2.7120 H   0  0  0  0  0  0
    1.9754    0.2463    1.1373 H   0  0  0  0  0  0
    1.6591    0.6237   -0.5283 H   0  0  0  0  0  0
    1.7372   -2.2083    0.6169 H   0  0  0  0  0  0
    1.3669   -1.8190   -1.0434 H   0  0  0  0  0  0
    3.6356   -0.7743   -1.3051 H   0  0  0  0  0  0
    4.0026   -1.1465    0.3605 H   0  0  0  0  0  0
    5.0115   -2.8398   -1.1556 H   0  0  0  0  0  0
    3.4280   -3.2319   -1.8170 H   0  0  0  0  0  0
    3.8000   -3.6063   -0.1344 H   0  0  0  0  0  0
   -1.0588   -1.8884    3.7183 H   0  0  0  0  0  0
   -3.9992   -5.3085    4.0468 H   0  0  0  0  0  0
   -4.4097   -6.0054    6.3595 H   0  0  0  0  0  0
   -3.0386   -5.0864    8.1962 H   0  0  0  0  0  0
   -1.2385   -3.4652    7.7189 H   0  0  0  0  0  0
   -0.7942   -2.7570    5.4224 H   0  0  0  0  0  0
  1  2  1  0  0  0
  1  4  1  0  0  0
  1  5  1  0  0  0
  1  3  1  0  0  0
  2  6  1  0  0  0
  3 25  1  0  0  0
  3 26  1  0  0  0
  3 27  1  0  0  0
  4 28  1  0  0  0
  4 29  1  0  0  0
  4 30  1  0  0  0
  5 31  1  0  0  0
  5 32  1  0  0  0
  5 33  1  0  0  0
  6  7  1  0  0  0
  6  8  2  0  0  0
  7  9  1  0  0  0
  7 34  1  0  0  0
  9 10  1  0  0  0
  9 12  1  0  0  0
  9 35  1  0  0  0
 10 11  2  0  0  0
 10 36  1  0  0  0
 11 16  1  0  0  0
 12 13  1  0  0  0
 12 37  1  0  0  0
 12 38  1  0  0  0
 13 14  1  0  0  0
 13 39  1  0  0  0
 13 40  1  0  0  0
 14 15  1  0  0  0
 14 41  1  0  0  0
 14 42  1  0  0  0
 15 43  1  0  0  0
 15 44  1  0  0  0
 15 45  1  0  0  0
 16 17  1  0  0  0
 16 46  1  0  0  0
 17 18  2  0  0  0
 17 19  1  0  0  0
 19 20  2  0  0  0
 19 24  1  0  0  0
 20 21  1  0  0  0
 20 47  1  0  0  0
 21 22  2  0  0  0
 21 48  1  0  0  0
 22 23  1  0  0  0
 22 49  1  0  0  0
 23 24  2  0  0  0
 23 50  1  0  0  0
 24 51  1  0  0  0
M  END
> <chembl_id>
CHEMBL204913

> <chembl_pref_name>
None

> <i_m_ct_stereo_status>
1

> <s_m_source_file>
sdf/inactives_sanitized.sdf

> <i_m_source_file_index>
472

> <i_lp_mmshare_version>
49012

> <i_f3d_flags>
0

> <s_epik_input>
W0NIM11DKFtDSDNdKShbQ0gzXSlPQyg9TylbTkhdW0NAQEhdKFtDSDJdW0NIMl1bQ0gyXVtDSDNdKS9bQ0hdPU4vW05IXUMoPU8pYzFbY0hdW2NIXVtjSF1bY0hdW2NIXTE=

> <s_epik_cmdline>
J2VwaWtfcHl0aG9uJywgJy1waHQnLCAnMC41JywgJy1waCcsICc3LjUnLCAnLW50JywgJy1tYScsICcyMDAnLCAnLWltYWUnLCAnPGluZmlsZS5tYWU+JywgJy1vbWFlJywgJzxvdXRmaWxlLm1hZT4n

> <r_lp_tautomer_probability>
1

> <r_epik_Ionization_Penalty>
  0.0013

> <r_epik_Ionization_Penalty_Charging>
  0.0000

> <r_epik_Ionization_Penalty_Neutral>
  0.0013

> <r_epik_State_Penalty>
 -0.0000

> <r_epik_Charging_Adjusted_Penalty>
0

> <i_epik_Tot_Q>
0

> <i_epik_Tot_abs_Q>
0

> <s_epik_Chemistry_Notes>
This compound has an ester and may undergo hydrolysis at high or low pH. This compound has an imine and may undergo hydrolysis.

> <s_lp_Force_Field>
OPLS3e

> <r_lp_Energy>
28.908308

> <b_lp_Chiralities_Consistent>
1

> <s_lp_Variant>
sdf/inactives_sanitized.sdf:472-1

$$$$
sdf/inactives_sanitized.sdf:473
                    3D
 Schrodinger Suite 2020-1.
 59 62  0  0  1  0            999 V2000
   -0.8306    0.9960    0.0462 C   0  0  0  0  0  0
   -0.2303   -0.2742    0.0058 C   0  0  0  0  0  0
   -1.0524   -1.4116   -0.0264 C   0  0  0  0  0  0
   -2.4392   -1.2888   -0.0166 C   0  0  0  0  0  0
   -3.0538   -0.0311    0.0225 C   0  0  0  0  0  0
   -2.2287    1.1004    0.0524 C   0  0  0  0  0  0
   -4.5418    0.1072    0.0323 C   0  0  0  0  0  0
   -5.1800    1.1659   -0.6346 C   0  0  0  0  0  0
   -6.5750   -0.8195    0.7776 C   0  0  0  0  0  0
   -5.2206   -0.8587    0.7137 N   0  0  0  0  0  0
   -7.3071    0.2007    0.1468 C   0  0  0  0  0  0
   -6.5778    1.1903   -0.5613 C   0  0  0  0  0  0
   -7.5475    2.0336   -1.0656 N   0  0  0  0  0  0
   -8.7555    1.5246   -0.6418 C   0  0  0  0  0  0
   -8.6573    0.4375    0.0787 N   0  0  0  0  0  0
    0.0360    2.2599    0.0839 C   0  0  0  0  0  0
    0.8150    2.3048   -0.9977 F   0  0  0  0  0  0
   -0.6861    3.3819    0.1156 F   0  0  0  0  0  0
    0.8124    2.2412    1.1681 F   0  0  0  0  0  0
    1.1526   -0.3329    0.0034 O   0  0  0  0  0  0
    1.8100   -1.5932   -0.0863 C   0  0  0  0  0  0
    3.3286   -1.3492   -0.0788 C   0  0  0  0  0  0
   -7.1945   -1.8966    1.5353 C   0  0  0  0  0  0
   -7.6878   -2.7528    2.1376 N   0  0  0  0  0  0
   -7.3421    3.2256   -1.8698 C   0  0  0  0  0  0
    4.1860   -2.6362   -0.0947 C   0  0  0  0  0  0
    5.6831   -2.3223    0.1363 C   0  0  0  0  0  0
    6.5445   -3.6025    0.1601 C   0  0  0  0  0  0
    6.3208   -4.3983   -1.0761 N   0  0  2  0  0  0
    4.9031   -4.7330   -1.3750 C   0  0  0  0  0  0
    4.0413   -3.4539   -1.4023 C   0  0  0  0  0  0
    7.4868   -5.6969   -1.3797 S   0  0  0  0  0  0
    7.5844   -5.7662   -3.2628 C   0  0  0  0  0  0
    8.7959   -5.2679   -0.8745 O   0  0  0  0  0  0
    6.8922   -6.9521   -0.9070 O   0  0  0  0  0  0
   -0.6348   -2.4062   -0.0586 H   0  0  0  0  0  0
   -3.0381   -2.1878   -0.0449 H   0  0  0  0  0  0
   -2.6865    2.0780    0.0923 H   0  0  0  0  0  0
   -4.6273    1.9162   -1.1807 H   0  0  0  0  0  0
   -9.6749    2.0236   -0.9125 H   0  0  0  0  0  0
    1.5331   -2.2240    0.7605 H   0  0  0  0  0  0
    1.5092   -2.0977   -1.0054 H   0  0  0  0  0  0
    3.5977   -0.7185   -0.9277 H   0  0  0  0  0  0
    3.5748   -0.7705    0.8132 H   0  0  0  0  0  0
   -8.3005    3.6702   -2.1413 H   0  0  0  0  0  0
   -6.7981    2.9591   -2.7767 H   0  0  0  0  0  0
   -6.7575    3.9482   -1.2995 H   0  0  0  0  0  0
    3.8663   -3.2788    0.7283 H   0  0  0  0  0  0
    6.0472   -1.6416   -0.6353 H   0  0  0  0  0  0
    5.8090   -1.7718    1.0696 H   0  0  0  0  0  0
    7.5959   -3.3273    0.2459 H   0  0  0  0  0  0
    6.1939   -4.1823    1.0152 H   0  0  0  0  0  0
    4.8335   -5.2449   -2.3348 H   0  0  0  0  0  0
    4.5099   -5.3371   -0.5557 H   0  0  0  0  0  0
    2.9987   -3.7186   -1.5771 H   0  0  0  0  0  0
    4.3169   -2.8377   -2.2599 H   0  0  0  0  0  0
    8.3105   -6.5267   -3.5485 H   0  0  0  0  0  0
    7.9005   -4.7926   -3.6360 H   0  0  0  0  0  0
    6.6052   -6.0217   -3.6659 H   0  0  0  0  0  0
  1  6  2  0  0  0
  1  2  1  0  0  0
  1 16  1  0  0  0
  2 20  1  0  0  0
  2  3  2  0  0  0
  3  4  1  0  0  0
  3 36  1  0  0  0
  4  5  2  0  0  0
  4 37  1  0  0  0
  5  7  1  0  0  0
  5  6  1  0  0  0
  6 38  1  0  0  0
  7 10  2  0  0  0
  7  8  1  0  0  0
  8 12  2  0  0  0
  8 39  1  0  0  0
  9 11  2  0  0  0
  9 10  1  0  0  0
  9 23  1  0  0  0
 11 12  1  0  0  0
 11 15  1  0  0  0
 12 13  1  0  0  0
 13 25  1  0  0  0
 13 14  1  0  0  0
 14 15  2  0  0  0
 14 40  1  0  0  0
 16 17  1  0  0  0
 16 18  1  0  0  0
 16 19  1  0  0  0
 20 21  1  0  0  0
 21 22  1  0  0  0
 21 41  1  0  0  0
 21 42  1  0  0  0
 22 26  1  0  0  0
 22 43  1  0  0  0
 22 44  1  0  0  0
 23 24  3  0  0  0
 25 45  1  0  0  0
 25 46  1  0  0  0
 25 47  1  0  0  0
 26 27  1  0  0  0
 26 31  1  0  0  0
 26 48  1  0  0  0
 27 28  1  0  0  0
 27 49  1  0  0  0
 27 50  1  0  0  0
 28 29  1  0  0  0
 28 51  1  0  0  0
 28 52  1  0  0  0
 29 30  1  0  0  0
 29 32  1  0  0  0
 30 31  1  0  0  0
 30 53  1  0  0  0
 30 54  1  0  0  0
 31 55  1  0  0  0
 31 56  1  0  0  0
 32 33  1  0  0  0
 32 34  2  0  0  0
 32 35  2  0  0  0
 33 57  1  0  0  0
 33 58  1  0  0  0
 33 59  1  0  0  0
M  END
> <chembl_id>
CHEMBL1669282

> <chembl_pref_name>
None

> <s_m_source_file>
sdf/inactives_sanitized.sdf

> <i_m_source_file_index>
473

> <i_lp_mmshare_version>
49012

> <i_m_ct_stereo_status>
1

> <i_f3d_flags>
0

> <s_epik_input>
W0NIMl0xW0NIMl1OKFMoPU8pKD1PKVtDSDNdKVtDSDJdW0NIMl1bQ0hdMVtDSDJdW0NIMl1PYyhjMkMoRikoRilGKVtjSF1bY0hdYyhbY0hdMiktYyhuYzNDI04pW2NIXWMoYzM0KW4oW2NIXW40KVtDSDNd

> <s_epik_cmdline>
J2VwaWtfcHl0aG9uJywgJy1waHQnLCAnMC41JywgJy1waCcsICc3LjUnLCAnLW50JywgJy1tYScsICcyMDAnLCAnLWltYWUnLCAnPGluZmlsZS5tYWU+JywgJy1vbWFlJywgJzxvdXRmaWxlLm1hZT4n

> <r_lp_tautomer_probability>
1

> <r_epik_Ionization_Penalty>
  0.0000

> <r_epik_Ionization_Penalty_Charging>
  0.0000

> <r_epik_Ionization_Penalty_Neutral>
  0.0000

> <r_epik_State_Penalty>
 -0.0000

> <r_epik_Charging_Adjusted_Penalty>
2.10485508124941e-07

> <i_epik_Tot_Q>
0

> <i_epik_Tot_abs_Q>
0

> <s_lp_Force_Field>
OPLS3e

> <r_lp_Energy>
45.992944

> <b_lp_Chiralities_Consistent>
1

> <s_lp_Variant>
sdf/inactives_sanitized.sdf:473-1

$$$$
sdf/inactives_sanitized.sdf:474
                    3D
 Schrodinger Suite 2020-1.
 58 61  0  0  1  0            999 V2000
   -3.2290    1.8670    0.3840 N   0  0  0  0  0  0
   -4.4573    1.2886    0.4728 C   0  0  0  0  0  0
   -4.7635   -0.0338    0.4229 N   0  0  0  0  0  0
   -3.7236   -0.8926    0.2617 C   0  0  0  0  0  0
   -2.2325    0.9806    0.2272 C   0  0  0  0  0  0
   -2.4028   -0.4271    0.1526 C   0  0  0  0  0  0
   -1.1066   -0.9934   -0.0262 C   0  0  0  0  0  0
   -0.1917    0.0484   -0.0593 C   0  0  0  0  0  0
   -0.8760    1.2473    0.1115 N   0  0  0  0  0  0
   -5.5786    2.1976    0.6407 C   0  0  0  0  0  0
   -6.4717    2.9219    0.7744 N   0  0  0  0  0  0
    1.3133   -0.0030   -0.2412 C   0  0  0  0  0  0
    1.9347    0.2927    1.0065 O   0  0  0  0  0  0
    3.3093    0.4160    1.0686 C   0  0  0  0  0  0
   -0.2790    2.5844    0.1122 C   0  0  0  0  0  0
   -0.2864    3.1856   -1.3092 C   0  0  0  0  0  0
    0.3370    4.5979   -1.4043 C   0  0  0  0  0  0
    0.0620    5.2363   -2.7865 C   0  0  0  0  0  0
    0.6015    6.6793   -2.8602 C   0  0  0  0  0  0
    2.1081    6.7379   -2.5291 C   0  0  0  0  0  0
    2.4474    6.0240   -1.2029 C   0  0  0  0  0  0
    1.8670    4.5956   -1.1606 C   0  0  0  0  0  0
    3.8473    0.7398    2.3136 C   0  0  0  0  0  0
    5.2222    0.8822    2.4763 C   0  0  0  0  0  0
    6.0814    0.6944    1.3925 C   0  0  0  0  0  0
    5.5472    0.3819    0.1333 C   0  0  0  0  0  0
    4.1713    0.2384   -0.0244 C   0  0  0  0  0  0
    7.4541    0.8689    1.6507 N   0  0  0  0  0  0
    8.5141    0.4476    0.9287 C   0  0  0  0  0  0
    9.8837    0.8246    1.4856 C   0  0  0  0  0  0
    8.4557   -0.2184   -0.1044 O   0  0  0  0  0  0
   -3.9575   -1.9461    0.2175 H   0  0  0  0  0  0
   -0.8552   -2.0391   -0.1260 H   0  0  0  0  0  0
    1.6071   -1.0044   -0.5603 H   0  0  0  0  0  0
    1.6197    0.7070   -1.0112 H   0  0  0  0  0  0
   -0.8381    3.2198    0.8010 H   0  0  0  0  0  0
    0.7287    2.5244    0.5202 H   0  0  0  0  0  0
    0.2319    2.5164   -1.9982 H   0  0  0  0  0  0
   -1.3199    3.2302   -1.6578 H   0  0  0  0  0  0
   -0.1268    5.2363   -0.6492 H   0  0  0  0  0  0
    0.4939    4.6215   -3.5782 H   0  0  0  0  0  0
   -1.0101    5.2353   -2.9891 H   0  0  0  0  0  0
    0.4232    7.0940   -3.8530 H   0  0  0  0  0  0
    0.0500    7.3112   -2.1621 H   0  0  0  0  0  0
    2.6703    6.2717   -3.3398 H   0  0  0  0  0  0
    2.4403    7.7760   -2.4886 H   0  0  0  0  0  0
    3.5288    5.9908   -1.0657 H   0  0  0  0  0  0
    2.0514    6.6022   -0.3666 H   0  0  0  0  0  0
    2.1031    4.1388   -0.1999 H   0  0  0  0  0  0
    2.3614    3.9586   -1.8960 H   0  0  0  0  0  0
    3.1937    0.8818    3.1621 H   0  0  0  0  0  0
    5.6134    1.1331    3.4521 H   0  0  0  0  0  0
    6.1719    0.2583   -0.7372 H   0  0  0  0  0  0
    3.7936   -0.0090   -1.0047 H   0  0  0  0  0  0
    7.6613    1.3232    2.5281 H   0  0  0  0  0  0
    9.8011    1.4026    2.4069 H   0  0  0  0  0  0
   10.4322    1.4222    0.7572 H   0  0  0  0  0  0
   10.4639   -0.0736    1.6979 H   0  0  0  0  0  0
  1  2  2  0  0  0
  1  5  1  0  0  0
  2 10  1  0  0  0
  2  3  1  0  0  0
  3  4  2  0  0  0
  4  6  1  0  0  0
  4 32  1  0  0  0
  5  9  1  0  0  0
  5  6  2  0  0  0
  6  7  1  0  0  0
  7  8  2  0  0  0
  7 33  1  0  0  0
  8  9  1  0  0  0
  8 12  1  0  0  0
  9 15  1  0  0  0
 10 11  3  0  0  0
 12 13  1  0  0  0
 12 34  1  0  0  0
 12 35  1  0  0  0
 13 14  1  0  0  0
 14 23  2  0  0  0
 14 27  1  0  0  0
 15 16  1  0  0  0
 15 36  1  0  0  0
 15 37  1  0  0  0
 16 17  1  0  0  0
 16 38  1  0  0  0
 16 39  1  0  0  0
 17 18  1  0  0  0
 17 22  1  0  0  0
 17 40  1  0  0  0
 18 19  1  0  0  0
 18 41  1  0  0  0
 18 42  1  0  0  0
 19 20  1  0  0  0
 19 43  1  0  0  0
 19 44  1  0  0  0
 20 21  1  0  0  0
 20 45  1  0  0  0
 20 46  1  0  0  0
 21 22  1  0  0  0
 21 47  1  0  0  0
 21 48  1  0  0  0
 22 49  1  0  0  0
 22 50  1  0  0  0
 23 24  1  0  0  0
 23 51  1  0  0  0
 24 25  2  0  0  0
 24 52  1  0  0  0
 25 26  1  0  0  0
 25 28  1  0  0  0
 26 27  2  0  0  0
 26 53  1  0  0  0
 27 54  1  0  0  0
 28 29  1  0  0  0
 28 55  1  0  0  0
 29 30  1  0  0  0
 29 31  2  0  0  0
 30 56  1  0  0  0
 30 57  1  0  0  0
 30 58  1  0  0  0
M  END
> <chembl_id>
CHEMBL520427

> <chembl_pref_name>
None

> <s_m_source_file>
sdf/inactives_sanitized.sdf

> <i_m_source_file_index>
474

> <i_lp_mmshare_version>
49012

> <i_m_ct_stereo_status>
1

> <i_f3d_flags>
0

> <s_epik_input>
W0NIM11DKD1PKVtOSF1jKFtjSF1bY0hdMSlbY0hdW2NIXWMxT1tDSDJdYyhbY0hdYyhjMjMpW2NIXW5jKG4yKUMjTiluM1tDSDJdW0NIMl1bQ0hdNFtDSDJdW0NIMl1bQ0gyXVtDSDJdW0NIMl00

> <s_epik_cmdline>
J2VwaWtfcHl0aG9uJywgJy1waHQnLCAnMC41JywgJy1waCcsICc3LjUnLCAnLW50JywgJy1tYScsICcyMDAnLCAnLWltYWUnLCAnPGluZmlsZS5tYWU+JywgJy1vbWFlJywgJzxvdXRmaWxlLm1hZT4n

> <r_lp_tautomer_probability>
1

> <r_epik_Ionization_Penalty>
  0.0000

> <r_epik_Ionization_Penalty_Charging>
  0.0000

> <r_epik_Ionization_Penalty_Neutral>
  0.0000

> <r_epik_State_Penalty>
 -0.0000

> <r_epik_Charging_Adjusted_Penalty>
0

> <i_epik_Tot_Q>
0

> <i_epik_Tot_abs_Q>
0

> <s_lp_Force_Field>
OPLS3e

> <r_lp_Energy>
38.405546

> <b_lp_Chiralities_Consistent>
1

> <s_lp_Variant>
sdf/inactives_sanitized.sdf:474-1

$$$$
sdf/inactives_sanitized.sdf:475
                    3D
 Schrodinger Suite 2020-1.
 53 56  0  0  1  0            999 V2000
   -3.3189    0.9727    0.3548 N   0  0  0  0  0  0
   -4.5288    0.3628    0.2326 C   0  0  0  0  0  0
   -4.7898   -0.8931   -0.2139 N   0  0  0  0  0  0
   -3.7183   -1.6411   -0.5851 C   0  0  0  0  0  0
   -2.2902    0.1968   -0.0231 C   0  0  0  0  0  0
   -2.4111   -1.1329   -0.5067 C   0  0  0  0  0  0
   -1.0912   -1.5954   -0.7855 C   0  0  0  0  0  0
   -0.2105   -0.5709   -0.4714 C   0  0  0  0  0  0
   -0.9423    0.5239   -0.0205 N   0  0  0  0  0  0
   -5.6825    1.1530    0.6283 C   0  0  0  0  0  0
   -6.6013    1.7826    0.9437 N   0  0  0  0  0  0
    1.3034   -0.5436   -0.5641 C   0  0  0  0  0  0
    1.8430   -0.5353    0.7578 O   0  0  0  0  0  0
    2.9475    0.2382    1.0558 C   0  0  0  0  0  0
   -0.3914    1.8032    0.4367 C   0  0  0  0  0  0
   -0.2952    1.8429    1.9767 C   0  0  0  0  0  0
    0.5663    3.0051    2.5233 C   0  0  0  0  0  0
    0.7589    2.8865    4.0529 C   0  0  0  0  0  0
    1.7156    3.9736    4.5822 C   0  0  0  0  0  0
    1.2241    5.3888    4.2077 C   0  0  0  0  0  0
    0.9068    5.5261    2.7023 C   0  0  0  0  0  0
   -0.0263    4.4000    2.2102 C   0  0  0  0  0  0
    3.1660    0.5103    2.4049 C   0  0  0  0  0  0
    4.2302    1.3130    2.8038 C   0  0  0  0  0  0
    5.1144    1.8483    1.8563 C   0  0  0  0  0  0
    4.9112    1.5441    0.5020 C   0  0  0  0  0  0
    3.8427    0.7447    0.1040 C   0  0  0  0  0  0
    6.2551    2.7269    2.2832 C   0  0  0  0  0  0
    6.3717    2.9893    3.5024 O   0  5  0  0  0  0
    7.0309    3.1560    1.3981 O   0  0  0  0  0  0
   -3.9158   -2.6420   -0.9393 H   0  0  0  0  0  0
   -0.8011   -2.5649   -1.1634 H   0  0  0  0  0  0
    1.6843   -1.4305   -1.0716 H   0  0  0  0  0  0
    1.6160    0.3003   -1.1786 H   0  0  0  0  0  0
    0.5902    1.9541   -0.0110 H   0  0  0  0  0  0
   -1.0193    2.6106    0.0582 H   0  0  0  0  0  0
   -1.2975    1.8903    2.4054 H   0  0  0  0  0  0
    0.1342    0.9033    2.3284 H   0  0  0  0  0  0
    1.5544    2.9490    2.0615 H   0  0  0  0  0  0
   -0.2060    2.9316    4.5610 H   0  0  0  0  0  0
    1.1563    1.9017    4.3017 H   0  0  0  0  0  0
    1.8148    3.8883    5.6648 H   0  0  0  0  0  0
    2.7136    3.8120    4.1713 H   0  0  0  0  0  0
    0.3266    5.6188    4.7837 H   0  0  0  0  0  0
    1.9691    6.1296    4.4997 H   0  0  0  0  0  0
    0.4535    6.4982    2.5054 H   0  0  0  0  0  0
    1.8369    5.5024    2.1319 H   0  0  0  0  0  0
   -0.1910    4.5101    1.1384 H   0  0  0  0  0  0
   -1.0188    4.4948    2.6543 H   0  0  0  0  0  0
    2.4917    0.1143    3.1498 H   0  0  0  0  0  0
    4.3530    1.5164    3.8582 H   0  0  0  0  0  0
    5.5776    1.9252   -0.2588 H   0  0  0  0  0  0
    3.7325    0.5267   -0.9470 H   0  0  0  0  0  0
  1  2  2  0  0  0
  1  5  1  0  0  0
  2 10  1  0  0  0
  2  3  1  0  0  0
  3  4  2  0  0  0
  4  6  1  0  0  0
  4 31  1  0  0  0
  5  9  1  0  0  0
  5  6  2  0  0  0
  6  7  1  0  0  0
  7  8  2  0  0  0
  7 32  1  0  0  0
  8  9  1  0  0  0
  8 12  1  0  0  0
  9 15  1  0  0  0
 10 11  3  0  0  0
 12 13  1  0  0  0
 12 33  1  0  0  0
 12 34  1  0  0  0
 13 14  1  0  0  0
 14 23  2  0  0  0
 14 27  1  0  0  0
 15 16  1  0  0  0
 15 35  1  0  0  0
 15 36  1  0  0  0
 16 17  1  0  0  0
 16 37  1  0  0  0
 16 38  1  0  0  0
 17 18  1  0  0  0
 17 22  1  0  0  0
 17 39  1  0  0  0
 18 19  1  0  0  0
 18 40  1  0  0  0
 18 41  1  0  0  0
 19 20  1  0  0  0
 19 42  1  0  0  0
 19 43  1  0  0  0
 20 21  1  0  0  0
 20 44  1  0  0  0
 20 45  1  0  0  0
 21 22  1  0  0  0
 21 46  1  0  0  0
 21 47  1  0  0  0
 22 48  1  0  0  0
 22 49  1  0  0  0
 23 24  1  0  0  0
 23 50  1  0  0  0
 24 25  2  0  0  0
 24 51  1  0  0  0
 25 26  1  0  0  0
 25 28  1  0  0  0
 26 27  2  0  0  0
 26 52  1  0  0  0
 27 53  1  0  0  0
 28 29  1  0  0  0
 28 30  2  0  0  0
M  CHG  1  29  -1
M  END
> <chembl_id>
CHEMBL520445

> <chembl_pref_name>
None

> <s_m_source_file>
sdf/inactives_sanitized.sdf

> <i_m_source_file_index>
475

> <i_lp_mmshare_version>
49012

> <i_m_ct_stereo_status>
1

> <i_f3d_flags>
0

> <s_epik_input>
W2NIXTFbY0hdYyhDKD1PKVtPSF0pW2NIXVtjSF1jMU9bQ0gyXWMoW2NIXWMoYzIzKVtjSF1uYyhuMilDI04pbjNbQ0gyXVtDSDJdW0NIXTRbQ0gyXVtDSDJdW0NIMl1bQ0gyXVtDSDJdNA==

> <s_epik_cmdline>
J2VwaWtfcHl0aG9uJywgJy1waHQnLCAnMC41JywgJy1waCcsICc3LjUnLCAnLW50JywgJy1tYScsICcyMDAnLCAnLWltYWUnLCAnPGluZmlsZS5tYWU+JywgJy1vbWFlJywgJzxvdXRmaWxlLm1hZT4n

> <r_lp_tautomer_probability>
1

> <r_epik_Ionization_Penalty>
  0.0005

> <r_epik_Ionization_Penalty_Charging>
  0.0005

> <r_epik_Ionization_Penalty_Neutral>
  0.0000

> <r_epik_State_Penalty>
 -0.0000

> <r_epik_Charging_Adjusted_Penalty>
0.000486138189288044

> <i_epik_Tot_Q>
-1

> <i_epik_Tot_abs_Q>
1

> <s_lp_Force_Field>
OPLS3e

> <r_lp_Energy>
38.22752

> <b_lp_Chiralities_Consistent>
1

> <s_lp_Variant>
sdf/inactives_sanitized.sdf:475-1

$$$$
sdf/inactives_sanitized.sdf:476
                    3D
 Schrodinger Suite 2020-1.
 61 64  0  0  1  0            999 V2000
   -3.4233    1.4545   -0.9582 N   0  0  0  0  0  0
   -4.6357    0.8606   -0.7899 C   0  0  0  0  0  0
   -4.9082   -0.3262   -0.1881 N   0  0  0  0  0  0
   -3.8477   -1.0113    0.3128 C   0  0  0  0  0  0
   -2.4054    0.7417   -0.4494 C   0  0  0  0  0  0
   -2.5399   -0.5092    0.2090 C   0  0  0  0  0  0
   -1.2303   -0.9146    0.6008 C   0  0  0  0  0  0
   -0.3430    0.0699    0.1908 C   0  0  0  0  0  0
   -1.0574    1.0693   -0.4616 N   0  0  0  0  0  0
   -5.7790    1.5868   -1.3163 C   0  0  0  0  0  0
   -6.6897    2.1658   -1.7353 N   0  0  0  0  0  0
    1.1610    0.1376    0.3717 C   0  0  0  0  0  0
    1.7848   -0.1011   -0.8870 O   0  0  0  0  0  0
    3.1611   -0.0332   -0.9850 C   0  0  0  0  0  0
   -0.5002    2.3014   -1.0247 C   0  0  0  0  0  0
   -0.5618    3.4489    0.0058 C   0  0  0  0  0  0
    0.0950    4.7664   -0.4690 C   0  0  0  0  0  0
    0.1820    5.7936    0.6843 C   0  0  0  0  0  0
    0.9207    7.0747    0.2460 C   0  0  0  0  0  0
    0.2598    7.7124   -0.9951 C   0  0  0  0  0  0
    0.0585    6.6980   -2.1415 C   0  0  0  0  0  0
   -0.6573    5.4214   -1.6542 C   0  0  0  0  0  0
    3.7068   -0.2702   -2.2465 C   0  0  0  0  0  0
    5.0841   -0.2296   -2.4448 C   0  0  0  0  0  0
    5.9378    0.0614   -1.3702 C   0  0  0  0  0  0
    5.3959    0.2899   -0.1044 C   0  0  0  0  0  0
    4.0183    0.2466    0.0898 C   0  0  0  0  0  0
    7.3418    0.1097   -1.4600 N   0  0  0  0  0  0
    8.1240    0.2343   -2.5540 C   0  0  0  0  0  0
    9.6357    0.2359   -2.2794 C   0  0  0  0  0  0
    7.7089    0.3793   -3.7048 O   0  0  0  0  0  0
   10.4812   -0.3404   -3.4300 C   0  0  0  0  0  0
   -4.0552   -1.9544    0.7964 H   0  0  0  0  0  0
   -0.9520   -1.8155    1.1279 H   0  0  0  0  0  0
    1.4453    1.1136    0.7691 H   0  0  0  0  0  0
    1.4748   -0.6287    1.0827 H   0  0  0  0  0  0
   -1.0576    2.5481   -1.9287 H   0  0  0  0  0  0
    0.5256    2.1247   -1.3478 H   0  0  0  0  0  0
   -1.6006    3.6394    0.2819 H   0  0  0  0  0  0
   -0.0641    3.1212    0.9202 H   0  0  0  0  0  0
    1.1151    4.5495   -0.7933 H   0  0  0  0  0  0
   -0.8173    6.0309    1.0537 H   0  0  0  0  0  0
    0.6950    5.3501    1.5388 H   0  0  0  0  0  0
    0.9415    7.7930    1.0664 H   0  0  0  0  0  0
    1.9619    6.8369    0.0223 H   0  0  0  0  0  0
   -0.7088    8.1265   -0.7108 H   0  0  0  0  0  0
    0.8580    8.5550   -1.3438 H   0  0  0  0  0  0
   -0.5119    7.1589   -2.9487 H   0  0  0  0  0  0
    1.0273    6.4316   -2.5667 H   0  0  0  0  0  0
   -0.7492    4.7202   -2.4833 H   0  0  0  0  0  0
   -1.6863    5.6443   -1.3663 H   0  0  0  0  0  0
    3.0575   -0.4953   -3.0800 H   0  0  0  0  0  0
    5.4593   -0.4423   -3.4334 H   0  0  0  0  0  0
    6.0384    0.5042    0.7382 H   0  0  0  0  0  0
    3.6361    0.4296    1.0824 H   0  0  0  0  0  0
    7.8178    0.0983   -0.5700 H   0  0  0  0  0  0
    9.9414    1.2655   -2.0903 H   0  0  0  0  0  0
    9.8512   -0.3198   -1.3649 H   0  0  0  0  0  0
   11.5368   -0.3341   -3.1576 H   0  0  0  0  0  0
   10.3924    0.2557   -4.3393 H   0  0  0  0  0  0
   10.2167   -1.3755   -3.6503 H   0  0  0  0  0  0
  1  2  2  0  0  0
  1  5  1  0  0  0
  2 10  1  0  0  0
  2  3  1  0  0  0
  3  4  2  0  0  0
  4  6  1  0  0  0
  4 33  1  0  0  0
  5  9  1  0  0  0
  5  6  2  0  0  0
  6  7  1  0  0  0
  7  8  2  0  0  0
  7 34  1  0  0  0
  8  9  1  0  0  0
  8 12  1  0  0  0
  9 15  1  0  0  0
 10 11  3  0  0  0
 12 13  1  0  0  0
 12 35  1  0  0  0
 12 36  1  0  0  0
 13 14  1  0  0  0
 14 23  2  0  0  0
 14 27  1  0  0  0
 15 16  1  0  0  0
 15 37  1  0  0  0
 15 38  1  0  0  0
 16 17  1  0  0  0
 16 39  1  0  0  0
 16 40  1  0  0  0
 17 18  1  0  0  0
 17 22  1  0  0  0
 17 41  1  0  0  0
 18 19  1  0  0  0
 18 42  1  0  0  0
 18 43  1  0  0  0
 19 20  1  0  0  0
 19 44  1  0  0  0
 19 45  1  0  0  0
 20 21  1  0  0  0
 20 46  1  0  0  0
 20 47  1  0  0  0
 21 22  1  0  0  0
 21 48  1  0  0  0
 21 49  1  0  0  0
 22 50  1  0  0  0
 22 51  1  0  0  0
 23 24  1  0  0  0
 23 52  1  0  0  0
 24 25  2  0  0  0
 24 53  1  0  0  0
 25 26  1  0  0  0
 25 28  1  0  0  0
 26 27  2  0  0  0
 26 54  1  0  0  0
 27 55  1  0  0  0
 28 29  1  0  0  0
 28 56  1  0  0  0
 29 30  1  0  0  0
 29 31  2  0  0  0
 30 32  1  0  0  0
 30 57  1  0  0  0
 30 58  1  0  0  0
 32 59  1  0  0  0
 32 60  1  0  0  0
 32 61  1  0  0  0
M  END
> <chembl_id>
CHEMBL481169

> <chembl_pref_name>
None

> <s_m_source_file>
sdf/inactives_sanitized.sdf

> <i_m_source_file_index>
476

> <i_lp_mmshare_version>
49012

> <i_m_ct_stereo_status>
1

> <i_f3d_flags>
0

> <s_epik_input>
W0NIMl0xW0NIMl1bQ0gyXVtDSDJdW0NIMl1bQ0hdMVtDSDJdW0NIMl1uMmMoW2NIXWMoYzIzKVtjSF1uYyhuMylDI04pW0NIMl1PYzRbY0hdW2NIXWMoW2NIXVtjSF00KVtOSF1DKD1PKVtDSDJdW0NIM10=

> <s_epik_cmdline>
J2VwaWtfcHl0aG9uJywgJy1waHQnLCAnMC41JywgJy1waCcsICc3LjUnLCAnLW50JywgJy1tYScsICcyMDAnLCAnLWltYWUnLCAnPGluZmlsZS5tYWU+JywgJy1vbWFlJywgJzxvdXRmaWxlLm1hZT4n

> <r_lp_tautomer_probability>
1

> <r_epik_Ionization_Penalty>
  0.0000

> <r_epik_Ionization_Penalty_Charging>
  0.0000

> <r_epik_Ionization_Penalty_Neutral>
  0.0000

> <r_epik_State_Penalty>
 -0.0000

> <r_epik_Charging_Adjusted_Penalty>
0

> <i_epik_Tot_Q>
0

> <i_epik_Tot_abs_Q>
0

> <s_lp_Force_Field>
OPLS3e

> <r_lp_Energy>
40.194479

> <b_lp_Chiralities_Consistent>
1

> <s_lp_Variant>
sdf/inactives_sanitized.sdf:476-1

$$$$
sdf/inactives_sanitized.sdf:477
                    3D
 Schrodinger Suite 2020-1.
 58 61  0  0  1  0            999 V2000
   -0.9529    3.7645   -2.6688 C   0  0  2  0  0  0
   -1.7453    3.7169   -3.9130 N   0  0  0  0  0  0
   -1.8563    2.6198   -2.1366 C   0  0  1  0  0  0
   -1.2068    5.4928   -1.9576 S   0  0  0  0  0  0
   -2.2994    2.4755   -3.6253 C   0  0  0  0  0  0
   -1.1883    1.4245   -1.6245 N   0  0  0  0  0  0
   -0.2521    1.4244   -0.6605 C   0  0  0  0  0  0
    2.4387   -0.3666   -1.3703 C   0  0  0  0  0  0
    0.2668    0.0416   -0.2150 C   0  0  1  0  0  0
    1.7367   -0.0253   -0.2208 N   0  0  0  0  0  0
   -2.6217    5.6754   -1.6148 O   0  0  0  0  0  0
   -0.1927    5.7470   -0.9297 O   0  0  0  0  0  0
   -2.8679    1.6214   -4.3028 O   0  0  0  0  0  0
    0.1694    2.4405   -0.1060 O   0  0  0  0  0  0
   -1.5212    4.5450   -5.0928 C   0  0  0  0  0  0
   -0.2745   -0.3682    1.1773 C   0  0  0  0  0  0
    1.9544   -0.6207   -2.4764 O   0  0  0  0  0  0
    3.7545   -0.3779   -1.0848 O   0  0  0  0  0  0
   -0.8028    6.4918   -3.5137 C   0  0  0  0  0  0
   -1.7151    6.0249   -4.6720 C   0  0  0  0  0  0
    4.7135   -0.7073   -2.0815 C   0  0  0  0  0  0
    0.0309   -1.7985    1.5940 C   0  0  0  0  0  0
    6.0998   -0.7095   -1.4650 C   0  0  0  0  0  0
   -0.7867   -2.8564    1.1427 C   0  0  0  0  0  0
    1.2226   -2.1026    2.2869 C   0  0  0  0  0  0
    6.6442   -1.9016   -0.9814 C   0  0  0  0  0  0
    6.8249    0.4814   -1.3803 C   0  0  0  0  0  0
    1.5409   -3.4231    2.5753 C   0  0  0  0  0  0
    7.9154   -1.9023   -0.4128 C   0  0  0  0  0  0
    8.0957    0.4798   -0.8111 C   0  0  0  0  0  0
   -0.4513   -4.1703    1.4419 C   0  0  0  0  0  0
    0.7042   -4.4515    2.1603 C   0  0  0  0  0  0
    8.6351   -0.7118   -0.3303 C   0  0  0  0  0  0
    0.1156    3.5872   -2.8115 H   0  0  0  0  0  0
   -2.6497    2.8816   -1.4341 H   0  0  0  0  0  0
   -1.5328    0.5378   -1.9641 H   0  0  0  0  0  0
   -0.1302   -0.7108   -0.9031 H   0  0  0  0  0  0
    2.2393    0.1974    0.6258 H   0  0  0  0  0  0
   -0.5019    4.3568   -5.4314 H   0  0  0  0  0  0
   -2.2193    4.2497   -5.8767 H   0  0  0  0  0  0
    0.1220    0.3006    1.9437 H   0  0  0  0  0  0
   -1.3582   -0.2391    1.2070 H   0  0  0  0  0  0
   -0.9356    7.5506   -3.2922 H   0  0  0  0  0  0
    0.2411    6.3116   -3.7708 H   0  0  0  0  0  0
   -2.7615    6.2010   -4.4167 H   0  0  0  0  0  0
   -1.5241    6.6544   -5.5416 H   0  0  0  0  0  0
    4.5021   -1.6879   -2.5120 H   0  0  0  0  0  0
    4.6782    0.0130   -2.9008 H   0  0  0  0  0  0
   -1.6761   -2.6479    0.5661 H   0  0  0  0  0  0
    1.8894   -1.3112    2.5963 H   0  0  0  0  0  0
    6.0848   -2.8239   -1.0436 H   0  0  0  0  0  0
    6.4053    1.4053   -1.7517 H   0  0  0  0  0  0
    2.4470   -3.6517    3.1168 H   0  0  0  0  0  0
    8.3413   -2.8211   -0.0371 H   0  0  0  0  0  0
    8.6603    1.3979   -0.7419 H   0  0  0  0  0  0
   -1.0867   -4.9771    1.1072 H   0  0  0  0  0  0
    0.9599   -5.4762    2.3862 H   0  0  0  0  0  0
    9.6209   -0.7127    0.1111 H   0  0  0  0  0  0
  1  2  1  0  0  0
  1  3  1  0  0  0
  1  4  1  0  0  0
  1 34  1  0  0  0
  2 15  1  0  0  0
  2  5  1  0  0  0
  3  5  1  0  0  0
  3  6  1  0  0  0
  3 35  1  0  0  0
  4 11  2  0  0  0
  4 12  2  0  0  0
  4 19  1  0  0  0
  5 13  2  0  0  0
  6  7  1  0  0  0
  6 36  1  0  0  0
  7  9  1  0  0  0
  7 14  2  0  0  0
  8 10  1  0  0  0
  8 17  2  0  0  0
  8 18  1  0  0  0
  9 10  1  0  0  0
  9 16  1  0  0  0
  9 37  1  0  0  0
 10 38  1  0  0  0
 15 20  1  0  0  0
 15 39  1  0  0  0
 15 40  1  0  0  0
 16 22  1  0  0  0
 16 41  1  0  0  0
 16 42  1  0  0  0
 18 21  1  0  0  0
 19 20  1  0  0  0
 19 43  1  0  0  0
 19 44  1  0  0  0
 20 45  1  0  0  0
 20 46  1  0  0  0
 21 23  1  0  0  0
 21 47  1  0  0  0
 21 48  1  0  0  0
 22 24  2  0  0  0
 22 25  1  0  0  0
 23 26  2  0  0  0
 23 27  1  0  0  0
 24 31  1  0  0  0
 24 49  1  0  0  0
 25 28  2  0  0  0
 25 50  1  0  0  0
 26 29  1  0  0  0
 26 51  1  0  0  0
 27 30  2  0  0  0
 27 52  1  0  0  0
 28 32  1  0  0  0
 28 53  1  0  0  0
 29 33  2  0  0  0
 29 54  1  0  0  0
 30 33  1  0  0  0
 30 55  1  0  0  0
 31 32  2  0  0  0
 31 56  1  0  0  0
 32 57  1  0  0  0
 33 58  1  0  0  0
M  END
> <chembl_id>
CHEMBL323704

> <chembl_pref_name>
None

> <i_m_ct_stereo_status>
1

> <s_m_source_file>
sdf/inactives_sanitized.sdf

> <i_m_source_file_index>
477

> <i_lp_mmshare_version>
49012

> <i_f3d_flags>
0

> <s_epik_input>
Tz1TMSg9TylbQ0gyXVtDSDJdW0NIMl1OKFtDQEBIXTEyKUMoPU8pW0NASF0yW05IXUMoPU8pW0NASF0oW0NIMl1jM1tjSF1bY0hdW2NIXVtjSF1bY0hdMylbTkhdQyg9TylPW0NIMl1jNFtjSF1bY0hdW2NIXVtjSF1bY0hdNA==

> <s_epik_cmdline>
J2VwaWtfcHl0aG9uJywgJy1waHQnLCAnMC41JywgJy1waCcsICc3LjUnLCAnLW50JywgJy1tYScsICcyMDAnLCAnLWltYWUnLCAnPGluZmlsZS5tYWU+JywgJy1vbWFlJywgJzxvdXRmaWxlLm1hZT4n

> <r_lp_tautomer_probability>
1

> <r_epik_Ionization_Penalty>
  0.0000

> <r_epik_Ionization_Penalty_Charging>
  0.0000

> <r_epik_Ionization_Penalty_Neutral>
  0.0000

> <r_epik_State_Penalty>
 -0.0000

> <r_epik_Charging_Adjusted_Penalty>
0

> <i_epik_Tot_Q>
0

> <i_epik_Tot_abs_Q>
0

> <s_epik_Chemistry_Notes>
This compound has an ester and may undergo hydrolysis at high or low pH.

> <s_lp_Force_Field>
OPLS3e

> <r_lp_Energy>
39.00954

> <b_lp_Chiralities_Consistent>
1

> <s_lp_Variant>
sdf/inactives_sanitized.sdf:477-1

$$$$
sdf/inactives_sanitized.sdf:478
                    3D
 Schrodinger Suite 2020-1.
 57 58  0  0  1  0            999 V2000
   -0.6470   -0.3452   -2.4268 C   0  0  0  0  0  0
   -0.5094   -0.8334   -1.1772 N   0  0  0  0  0  0
    0.0619   -0.1210   -0.0270 C   0  0  2  0  0  0
    1.5817    0.1165   -0.1970 C   0  0  0  0  0  0
   -0.3056    0.7978   -2.7405 O   0  0  0  0  0  0
   -1.2307   -1.2896   -3.4565 C   0  0  0  0  0  0
    2.2912   -0.7494   -0.7134 O   0  0  0  0  0  0
   -0.2720   -0.9343    1.2537 C   0  0  0  0  0  0
    2.0461    1.2846    0.2751 N   0  0  0  0  0  0
    2.9852    5.1996   -1.3421 C   0  0  0  0  0  0
    2.9818    3.8165   -1.0941 N   0  0  0  0  0  0
    2.9331    7.9379   -1.9528 C   0  0  0  0  0  0
    2.5220    5.6339   -2.5846 C   0  0  0  0  0  0
    3.4233    6.1424   -0.4037 C   0  0  0  0  0  0
    3.3968    7.4995   -0.7125 C   0  0  0  0  0  0
    2.4939    6.9917   -2.8915 C   0  0  0  0  0  0
    2.9413    9.3030   -2.1671 O   0  0  0  0  0  0
    0.0478   -0.2414    2.6020 C   0  0  0  0  0  0
   -1.0544   -1.0219   -4.8222 C   0  0  0  0  0  0
   -1.9570   -2.4313   -3.0768 C   0  0  0  0  0  0
    3.4402    1.7169    0.1971 C   0  0  0  0  0  0
    3.5741    3.2466    0.1126 C   0  0  0  0  0  0
    2.4604    9.8145   -3.4055 C   0  0  0  0  0  0
   -0.2078   -1.1975    3.7869 C   0  0  0  0  0  0
   -0.6907    1.1042    2.7689 C   0  0  0  0  0  0
   -2.4854   -3.2856   -4.0410 C   0  0  0  0  0  0
   -1.5835   -1.8768   -5.7855 C   0  0  0  0  0  0
   -2.2959   -3.0055   -5.3911 C   0  0  0  0  0  0
   -0.7965   -1.7838   -0.9965 H   0  0  0  0  0  0
   -0.4514    0.8418    0.0152 H   0  0  0  0  0  0
   -1.3360   -1.1791    1.2547 H   0  0  0  0  0  0
    0.2511   -1.8922    1.2144 H   0  0  0  0  0  0
    1.4008    1.9239    0.7163 H   0  0  0  0  0  0
    2.8535    3.2004   -1.8847 H   0  0  0  0  0  0
    2.1775    4.9211   -3.3204 H   0  0  0  0  0  0
    3.7878    5.8422    0.5671 H   0  0  0  0  0  0
    3.7384    8.2177    0.0186 H   0  0  0  0  0  0
    2.1277    7.2900   -3.8621 H   0  0  0  0  0  0
    1.1166   -0.0260    2.6171 H   0  0  0  0  0  0
   -0.5027   -0.1519   -5.1502 H   0  0  0  0  0  0
   -2.1248   -2.6695   -2.0363 H   0  0  0  0  0  0
    3.9780    1.3445    1.0699 H   0  0  0  0  0  0
    3.9270    1.2775   -0.6770 H   0  0  0  0  0  0
    4.6321    3.5125    0.1190 H   0  0  0  0  0  0
    3.1514    3.7186    1.0006 H   0  0  0  0  0  0
    2.5376   10.9016   -3.4004 H   0  0  0  0  0  0
    1.4113    9.5589   -3.5630 H   0  0  0  0  0  0
    3.0495    9.4462   -4.2466 H   0  0  0  0  0  0
   -1.0304   -0.8706    4.4231 H   0  0  0  0  0  0
    0.6783   -1.2761    4.4175 H   0  0  0  0  0  0
   -0.4529   -2.2065    3.4533 H   0  0  0  0  0  0
   -1.0937    1.2419    3.7722 H   0  0  0  0  0  0
   -1.5251    1.2018    2.0739 H   0  0  0  0  0  0
   -0.0134    1.9387    2.5847 H   0  0  0  0  0  0
   -3.0415   -4.1620   -3.7423 H   0  0  0  0  0  0
   -1.4411   -1.6649   -6.8350 H   0  0  0  0  0  0
   -2.7059   -3.6685   -6.1387 H   0  0  0  0  0  0
  1  2  1  0  0  0
  1  5  2  0  0  0
  1  6  1  0  0  0
  2  3  1  0  0  0
  2 29  1  0  0  0
  3  4  1  0  0  0
  3  8  1  0  0  0
  3 30  1  0  0  0
  4  7  2  0  0  0
  4  9  1  0  0  0
  6 19  2  0  0  0
  6 20  1  0  0  0
  8 18  1  0  0  0
  8 31  1  0  0  0
  8 32  1  0  0  0
  9 21  1  0  0  0
  9 33  1  0  0  0
 10 11  1  0  0  0
 10 13  1  0  0  0
 10 14  2  0  0  0
 11 22  1  0  0  0
 11 34  1  0  0  0
 12 15  2  0  0  0
 12 17  1  0  0  0
 12 16  1  0  0  0
 13 16  2  0  0  0
 13 35  1  0  0  0
 14 15  1  0  0  0
 14 36  1  0  0  0
 15 37  1  0  0  0
 16 38  1  0  0  0
 17 23  1  0  0  0
 18 24  1  0  0  0
 18 25  1  0  0  0
 18 39  1  0  0  0
 19 27  1  0  0  0
 19 40  1  0  0  0
 20 26  2  0  0  0
 20 41  1  0  0  0
 21 22  1  0  0  0
 21 42  1  0  0  0
 21 43  1  0  0  0
 22 44  1  0  0  0
 22 45  1  0  0  0
 23 46  1  0  0  0
 23 47  1  0  0  0
 23 48  1  0  0  0
 24 49  1  0  0  0
 24 50  1  0  0  0
 24 51  1  0  0  0
 25 52  1  0  0  0
 25 53  1  0  0  0
 25 54  1  0  0  0
 26 28  1  0  0  0
 26 55  1  0  0  0
 27 28  2  0  0  0
 27 56  1  0  0  0
 28 57  1  0  0  0
M  END
> <chembl_id>
CHEMBL64546

> <chembl_pref_name>
None

> <i_m_ct_stereo_status>
1

> <s_m_source_file>
sdf/inactives_sanitized.sdf

> <i_m_source_file_index>
478

> <i_lp_mmshare_version>
49012

> <i_f3d_flags>
0

> <s_epik_input>
W2NIXTFbY0hdW2NIXVtjSF1bY0hdYzFDKD1PKVtOSF1bQ0BASF0oW0NIMl1bQ0hdKFtDSDNdKVtDSDNdKUMoPU8pW05IXVtDSDJdW0NIMl1bTkhdYzJbY0hdW2NIXWMoW2NIXVtjSF0yKU9bQ0gzXQ==

> <s_epik_cmdline>
J2VwaWtfcHl0aG9uJywgJy1waHQnLCAnMC41JywgJy1waCcsICc3LjUnLCAnLW50JywgJy1tYScsICcyMDAnLCAnLWltYWUnLCAnPGluZmlsZS5tYWU+JywgJy1vbWFlJywgJzxvdXRmaWxlLm1hZT4n

> <r_lp_tautomer_probability>
1

> <r_epik_Ionization_Penalty>
  0.0017

> <r_epik_Ionization_Penalty_Charging>
  0.0000

> <r_epik_Ionization_Penalty_Neutral>
  0.0017

> <r_epik_State_Penalty>
 -0.0000

> <r_epik_Charging_Adjusted_Penalty>
0

> <i_epik_Tot_Q>
0

> <i_epik_Tot_abs_Q>
0

> <s_lp_Force_Field>
OPLS3e

> <r_lp_Energy>
27.577814

> <b_lp_Chiralities_Consistent>
1

> <s_lp_Variant>
sdf/inactives_sanitized.sdf:478-1

$$$$
sdf/inactives_sanitized.sdf:479
                    3D
 Schrodinger Suite 2020-1.
 32 33  0  0  1  0            999 V2000
   -5.0895   -3.5288    0.5492 C   0  0  0  0  0  0
   -4.6012   -4.7175    0.0004 C   0  0  0  0  0  0
   -3.3195   -4.7677   -0.5399 C   0  0  0  0  0  0
   -2.5147   -3.6301   -0.5335 C   0  0  0  0  0  0
   -2.9699   -2.4193    0.0113 C   0  0  0  0  0  0
   -4.2703   -2.3918    0.5462 C   0  0  0  0  0  0
   -6.4980   -3.4956    1.1405 C   0  0  0  0  0  0
   -7.3872   -3.7985    0.1943 F   0  0  0  0  0  0
   -6.5931   -4.3932    2.1220 F   0  0  0  0  0  0
   -6.8159   -2.3000    1.6409 F   0  0  0  0  0  0
   -2.0948   -1.2020    0.0198 C   0  0  0  0  0  0
   -0.6916   -1.2792   -0.0289 C   0  0  0  0  0  0
    0.0291   -0.0789    0.0053 C   0  0  0  0  0  0
   -0.5805    1.1345    0.0833 N   0  0  0  0  0  0
   -1.9353    1.1112    0.1312 C   0  0  0  0  0  0
   -2.7244    0.0072    0.1065 N   0  0  0  0  0  0
   -2.6094    2.3947    0.2227 C   0  0  0  0  0  0
   -3.1468    3.4174    0.2956 N   0  0  0  0  0  0
    1.5506   -0.0688   -0.0259 C   0  0  0  0  0  0
    2.1763    0.3543    1.3259 C   0  0  0  0  0  0
    3.7043    0.1805    1.3791 C   0  0  0  0  0  0
    4.2308    0.2711    2.5097 O   0  0  0  0  0  0
    4.3310   -0.0245    0.3148 O   0  5  0  0  0  0
   -5.2164   -5.6059   -0.0081 H   0  0  0  0  0  0
   -2.9491   -5.6887   -0.9654 H   0  0  0  0  0  0
   -1.5304   -3.7030   -0.9710 H   0  0  0  0  0  0
   -4.6468   -1.4747    0.9756 H   0  0  0  0  0  0
   -0.1726   -2.2251   -0.0729 H   0  0  0  0  0  0
    1.9061   -1.0614   -0.3104 H   0  0  0  0  0  0
    1.8808    0.5995   -0.8234 H   0  0  0  0  0  0
    1.9415    1.3992    1.5327 H   0  0  0  0  0  0
    1.7334   -0.2301    2.1342 H   0  0  0  0  0  0
  1  6  2  0  0  0
  1  2  1  0  0  0
  1  7  1  0  0  0
  2  3  2  0  0  0
  2 24  1  0  0  0
  3  4  1  0  0  0
  3 25  1  0  0  0
  4  5  2  0  0  0
  4 26  1  0  0  0
  5  6  1  0  0  0
  5 11  1  0  0  0
  6 27  1  0  0  0
  7  8  1  0  0  0
  7  9  1  0  0  0
  7 10  1  0  0  0
 11 12  2  0  0  0
 11 16  1  0  0  0
 12 13  1  0  0  0
 12 28  1  0  0  0
 13 14  2  0  0  0
 13 19  1  0  0  0
 14 15  1  0  0  0
 15 16  2  0  0  0
 15 17  1  0  0  0
 17 18  3  0  0  0
 19 20  1  0  0  0
 19 29  1  0  0  0
 19 30  1  0  0  0
 20 21  1  0  0  0
 20 31  1  0  0  0
 20 32  1  0  0  0
 21 22  2  0  0  0
 21 23  1  0  0  0
M  CHG  1  23  -1
M  END
> <chembl_id>
CHEMBL1271274

> <chembl_pref_name>
None

> <s_m_source_file>
sdf/inactives_sanitized.sdf

> <i_m_source_file_index>
479

> <i_lp_mmshare_version>
49012

> <i_m_ct_stereo_status>
1

> <i_f3d_flags>
0

> <s_epik_input>
RkMoRikoRiljMVtjSF1bY0hdW2NIXWMoW2NIXTEpLWMyW2NIXWMobmMobjIpQyNOKVtDSDJdW0NIMl1DKD1PKVtPSF0=

> <s_epik_cmdline>
J2VwaWtfcHl0aG9uJywgJy1waHQnLCAnMC41JywgJy1waCcsICc3LjUnLCAnLW50JywgJy1tYScsICcyMDAnLCAnLWltYWUnLCAnPGluZmlsZS5tYWU+JywgJy1vbWFlJywgJzxvdXRmaWxlLm1hZT4n

> <r_lp_tautomer_probability>
1

> <r_epik_Ionization_Penalty>
  0.0001

> <r_epik_Ionization_Penalty_Charging>
  0.0001

> <r_epik_Ionization_Penalty_Neutral>
  0.0000

> <r_epik_State_Penalty>
 -0.0000

> <r_epik_Charging_Adjusted_Penalty>
0.000115074884093961

> <i_epik_Tot_Q>
-1

> <i_epik_Tot_abs_Q>
1

> <s_lp_Force_Field>
OPLS3e

> <r_lp_Energy>
29.665164

> <b_lp_Chiralities_Consistent>
1

> <s_lp_Variant>
sdf/inactives_sanitized.sdf:479-1

$$$$
sdf/inactives_sanitized.sdf:480
                    3D
 Schrodinger Suite 2020-1.
 78 79  0  0  1  0            999 V2000
    3.0873   -5.9239   -7.7556 C   0  0  0  0  0  0
    4.4390   -5.8178   -8.0796 C   0  0  0  0  0  0
    5.2228   -4.8241   -7.4944 C   0  0  0  0  0  0
    4.6522   -3.9406   -6.5825 C   0  0  0  0  0  0
    3.2945   -4.0318   -6.2432 C   0  0  0  0  0  0
    2.5223   -5.0366   -6.8440 C   0  0  0  0  0  0
    2.6835   -3.0779   -5.2661 C   0  0  0  0  0  0
    3.1273   -1.7511   -5.1851 C   0  0  0  0  0  0
    2.5588   -0.8610   -4.2787 C   0  0  0  0  0  0
    1.5302   -1.2765   -3.4306 C   0  0  0  0  0  0
    1.0794   -2.6000   -3.5037 C   0  0  0  0  0  0
    1.6514   -3.4873   -4.4109 C   0  0  0  0  0  0
    5.1631   -6.9522   -9.2613 S   0  0  0  0  0  0
    4.8310   -6.1131  -10.9167 C   0  0  0  0  0  0
    6.6120   -6.9700   -9.0303 O   0  0  0  0  0  0
    4.3900   -8.1980   -9.2069 O   0  0  0  0  0  0
    0.9323   -0.2633   -2.4432 C   0  0  2  0  0  0
    0.5844   -0.9215   -1.1752 N   0  0  2  0  0  0
   -0.2968    0.4544   -3.0734 C   0  0  0  0  0  0
   -0.7679    1.4384   -2.3083 F   0  0  0  0  0  0
    0.0211    1.0130   -4.2424 F   0  0  0  0  0  0
   -1.3068   -0.3880   -3.3008 F   0  0  0  0  0  0
    0.5300   -0.0666    0.0369 C   0  0  2  0  0  0
    1.9846    0.1121    0.5305 C   0  0  0  0  0  0
   -0.3510   -0.6948    1.1489 C   0  0  0  0  0  0
   -1.8570   -0.7831    0.8032 C   0  0  0  0  0  0
   -2.5003    0.6071    0.6016 C   0  0  0  0  0  0
   -2.6161   -1.6348    1.8447 C   0  0  0  0  0  0
    2.6160   -0.8625    0.9466 O   0  0  0  0  0  0
    2.4905    1.3560    0.4524 N   0  0  0  0  0  0
    3.8303    1.7438    0.8948 C   0  0  1  0  0  0
    4.1654    3.1264    0.2944 C   0  0  0  0  0  0
    5.5699    3.6542    0.6393 C   0  0  0  0  0  0
    6.0465    5.1740   -0.2285 S   0  0  0  0  0  0
    4.9508    6.3719    0.5774 C   0  0  0  0  0  0
    3.9388    1.7270    2.4305 C   0  0  0  0  0  0
    3.0628    2.2670    3.1069 O   0  0  0  0  0  0
    5.0237    1.1202    2.9383 N   0  0  0  0  0  0
    5.2984    0.9750    4.3683 C   0  0  0  0  0  0
    4.5873   -0.2238    5.0302 C   0  0  0  0  0  0
    4.9107   -1.3716    4.4335 F   0  0  0  0  0  0
    4.9342   -0.3260    6.3130 F   0  0  0  0  0  0
    3.2598   -0.1088    4.9827 F   0  0  0  0  0  0
    2.4714   -6.6865   -8.2097 H   0  0  0  0  0  0
    6.2706   -4.7317   -7.7411 H   0  0  0  0  0  0
    5.2819   -3.1864   -6.1336 H   0  0  0  0  0  0
    1.4704   -5.1312   -6.6177 H   0  0  0  0  0  0
    3.9124   -1.3928   -5.8347 H   0  0  0  0  0  0
    2.9191    0.1570   -4.2411 H   0  0  0  0  0  0
    0.2817   -2.9470   -2.8631 H   0  0  0  0  0  0
    1.2867   -4.5037   -4.4358 H   0  0  0  0  0  0
    5.2395   -6.7336  -11.7137 H   0  0  0  0  0  0
    5.3125   -5.1358  -10.9217 H   0  0  0  0  0  0
    3.7551   -6.0002  -11.0475 H   0  0  0  0  0  0
    1.7088    0.4754   -2.2369 H   0  0  0  0  0  0
    1.2268   -1.6833   -1.0062 H   0  0  0  0  0  0
    0.1340    0.9259   -0.1756 H   0  0  0  0  0  0
    0.0107   -1.7030    1.3622 H   0  0  0  0  0  0
   -0.2499   -0.1254    2.0752 H   0  0  0  0  0  0
   -1.9418   -1.3152   -0.1453 H   0  0  0  0  0  0
   -1.8549    1.4125    0.9529 H   0  0  0  0  0  0
   -3.4511    0.7145    1.1232 H   0  0  0  0  0  0
   -2.6992    0.7869   -0.4551 H   0  0  0  0  0  0
   -3.3624   -1.0647    2.3972 H   0  0  0  0  0  0
   -1.9452   -2.0686    2.5865 H   0  0  0  0  0  0
   -3.1351   -2.4627    1.3613 H   0  0  0  0  0  0
    1.9107    2.1026    0.0977 H   0  0  0  0  0  0
    4.5384    1.0197    0.4860 H   0  0  0  0  0  0
    4.0659    3.0799   -0.7910 H   0  0  0  0  0  0
    3.4213    3.8494    0.6304 H   0  0  0  0  0  0
    5.6606    3.8387    1.7098 H   0  0  0  0  0  0
    6.3106    2.8929    0.3933 H   0  0  0  0  0  0
    5.1716    7.3780    0.2209 H   0  0  0  0  0  0
    5.0905    6.3502    1.6581 H   0  0  0  0  0  0
    3.9068    6.1526    0.3551 H   0  0  0  0  0  0
    5.6978    0.7156    2.3044 H   0  0  0  0  0  0
    6.3765    0.8536    4.4796 H   0  0  0  0  0  0
    5.0495    1.8962    4.8994 H   0  0  0  0  0  0
  1  6  2  0  0  0
  1  2  1  0  0  0
  1 44  1  0  0  0
  2 13  1  0  0  0
  2  3  2  0  0  0
  3  4  1  0  0  0
  3 45  1  0  0  0
  4  5  2  0  0  0
  4 46  1  0  0  0
  5  6  1  0  0  0
  5  7  1  0  0  0
  6 47  1  0  0  0
  7 12  1  0  0  0
  7  8  2  0  0  0
  8  9  1  0  0  0
  8 48  1  0  0  0
  9 10  2  0  0  0
  9 49  1  0  0  0
 10 11  1  0  0  0
 10 17  1  0  0  0
 11 12  2  0  0  0
 11 50  1  0  0  0
 12 51  1  0  0  0
 13 14  1  0  0  0
 13 15  2  0  0  0
 13 16  2  0  0  0
 14 52  1  0  0  0
 14 53  1  0  0  0
 14 54  1  0  0  0
 17 18  1  0  0  0
 17 19  1  0  0  0
 17 55  1  0  0  0
 18 23  1  0  0  0
 18 56  1  0  0  0
 19 21  1  0  0  0
 19 22  1  0  0  0
 19 20  1  0  0  0
 23 24  1  0  0  0
 23 25  1  0  0  0
 23 57  1  0  0  0
 24 29  2  0  0  0
 24 30  1  0  0  0
 25 26  1  0  0  0
 25 58  1  0  0  0
 25 59  1  0  0  0
 26 27  1  0  0  0
 26 28  1  0  0  0
 26 60  1  0  0  0
 27 61  1  0  0  0
 27 62  1  0  0  0
 27 63  1  0  0  0
 28 64  1  0  0  0
 28 65  1  0  0  0
 28 66  1  0  0  0
 30 31  1  0  0  0
 30 67  1  0  0  0
 31 32  1  0  0  0
 31 36  1  0  0  0
 31 68  1  0  0  0
 32 33  1  0  0  0
 32 69  1  0  0  0
 32 70  1  0  0  0
 33 34  1  0  0  0
 33 71  1  0  0  0
 33 72  1  0  0  0
 34 35  1  0  0  0
 35 73  1  0  0  0
 35 74  1  0  0  0
 35 75  1  0  0  0
 36 37  2  0  0  0
 36 38  1  0  0  0
 38 39  1  0  0  0
 38 76  1  0  0  0
 39 40  1  0  0  0
 39 77  1  0  0  0
 39 78  1  0  0  0
 40 41  1  0  0  0
 40 42  1  0  0  0
 40 43  1  0  0  0
M  END
> <chembl_id>
CHEMBL249276

> <chembl_pref_name>
None

> <i_m_ct_stereo_status>
1

> <s_m_source_file>
sdf/inactives_sanitized.sdf

> <i_m_source_file_index>
480

> <i_lp_mmshare_version>
49012

> <i_f3d_flags>
0

> <s_epik_input>
W0NIM11TKD1PKSg9TyljMVtjSF1bY0hdYyhbY0hdW2NIXTEpLWMyW2NIXVtjSF1jKFtjSF1bY0hdMilbQ0BASF0oQyhGKShGKUYpW05IXVtDQEBIXShbQ0gyXVtDSF0oW0NIM10pW0NIM10pQyg9TylbTkhdW0NAQEhdKFtDSDJdW0NIMl1TW0NIM10pQyg9TylbTkhdW0NIMl1DKEYpKEYpRg==

> <s_epik_cmdline>
J2VwaWtfcHl0aG9uJywgJy1waHQnLCAnMC41JywgJy1waCcsICc3LjUnLCAnLW50JywgJy1tYScsICcyMDAnLCAnLWltYWUnLCAnPGluZmlsZS5tYWU+JywgJy1vbWFlJywgJzxvdXRmaWxlLm1hZT4n

> <r_lp_tautomer_probability>
1

> <r_epik_Ionization_Penalty>
  0.0004

> <r_epik_Ionization_Penalty_Charging>
  0.0000

> <r_epik_Ionization_Penalty_Neutral>
  0.0004

> <r_epik_State_Penalty>
 -0.0000

> <r_epik_Charging_Adjusted_Penalty>
0

> <i_epik_Tot_Q>
0

> <i_epik_Tot_abs_Q>
0

> <s_lp_Force_Field>
OPLS3e

> <r_lp_Energy>
35.427304

> <b_lp_Chiralities_Consistent>
1

> <s_lp_Variant>
sdf/inactives_sanitized.sdf:480-1

$$$$
sdf/inactives_sanitized.sdf:481
                    3D
 Schrodinger Suite 2020-1.
 72 76  0  0  1  0            999 V2000
   -3.4947    2.7480    0.6538 C   0  0  2  0  0  0
   -3.1225    1.8044   -0.4829 C   0  0  0  0  0  0
   -2.2494    0.7247    0.1699 C   0  0  2  0  0  0
   -2.7180    0.6975    1.5710 N   0  0  0  0  0  0
   -3.5076    1.8873    1.9234 C   0  0  0  0  0  0
   -5.0796    3.7657    0.3243 S   0  0  0  0  0  0
   -0.7350    1.0272    0.1001 C   0  0  0  0  0  0
    0.0692   -0.0207   -0.1535 N   0  0  0  0  0  0
   -0.3078    2.1582    0.3389 O   0  0  0  0  0  0
    1.5385    0.0114   -0.1567 C   0  0  2  0  0  0
    1.9439   -0.6804   -1.4578 C   0  0  0  0  0  0
    2.1492   -0.6435    1.1127 C   0  0  0  0  0  0
    1.7635    0.0601    2.4253 C   0  0  0  0  0  0
    1.5819   -0.0652   -2.7391 C   0  0  0  0  0  0
    2.5883   -1.7318   -1.4438 O   0  0  0  0  0  0
    1.7280   -0.5831   -3.9450 N   0  0  0  0  0  0
    1.0211    1.1852   -2.7104 O   0  0  0  0  0  0
    0.7829    1.4681   -4.0187 C   0  0  0  0  0  0
    1.2213    0.3738   -4.7796 C   0  0  0  0  0  0
    1.0879    0.4091   -6.1765 C   0  0  0  0  0  0
    0.5140    1.5494   -6.7518 C   0  0  0  0  0  0
    0.0841    2.6275   -5.9694 C   0  0  0  0  0  0
    0.2086    2.6139   -4.5773 C   0  0  0  0  0  0
   -6.2477    3.2820    1.5983 C   0  0  0  0  0  0
   -4.7662    5.1801    0.5586 O   0  0  0  0  0  0
   -5.6544    3.3537   -0.9619 O   0  0  0  0  0  0
   -7.1534    2.2455    1.3563 C   0  0  0  0  0  0
   -8.0480    1.8627    2.3522 C   0  0  0  0  0  0
   -8.0325    2.5162    3.5830 C   0  0  0  0  0  0
   -7.1302    3.5493    3.8284 C   0  0  0  0  0  0
   -6.2349    3.9344    2.8341 C   0  0  0  0  0  0
   -2.5694   -0.3837    2.3849 C   0  0  0  0  0  0
   -1.9875   -1.4020    2.0000 O   0  0  0  0  0  0
   -3.1005   -0.3267    3.8438 C   0  0  0  0  0  0
   -2.0067    0.3131    4.7355 C   0  0  0  0  0  0
   -2.5154    0.4099    6.1896 C   0  0  0  0  0  0
   -2.9763   -0.9576    6.7371 C   0  0  0  0  0  0
   -3.9947   -1.6479    5.8050 C   0  0  0  0  0  0
   -3.4763   -1.7440    4.3545 C   0  0  0  0  0  0
   -2.7167    3.5072    0.7452 H   0  0  0  0  0  0
   -4.0166    1.3187   -0.8762 H   0  0  0  0  0  0
   -2.6660    2.2955   -1.3442 H   0  0  0  0  0  0
   -2.3853   -0.2557   -0.2915 H   0  0  0  0  0  0
   -4.5261    1.5530    2.1117 H   0  0  0  0  0  0
   -3.1351    2.4409    2.7857 H   0  0  0  0  0  0
   -0.3452   -0.9363   -0.2545 H   0  0  0  0  0  0
    1.9042    1.0401   -0.2038 H   0  0  0  0  0  0
    1.8358   -1.6868    1.1842 H   0  0  0  0  0  0
    3.2378   -0.6517    1.0351 H   0  0  0  0  0  0
    2.2547   -0.4108    3.2771 H   0  0  0  0  0  0
    0.6888    0.0164    2.6045 H   0  0  0  0  0  0
    2.0575    1.1100    2.4124 H   0  0  0  0  0  0
    1.4144   -0.4168   -6.7913 H   0  0  0  0  0  0
    0.3994    1.5988   -7.8250 H   0  0  0  0  0  0
   -0.3540    3.4886   -6.4528 H   0  0  0  0  0  0
   -0.1219    3.4415   -3.9670 H   0  0  0  0  0  0
   -7.1639    1.7341    0.4049 H   0  0  0  0  0  0
   -8.7508    1.0626    2.1715 H   0  0  0  0  0  0
   -8.7270    2.2188    4.3549 H   0  0  0  0  0  0
   -7.1248    4.0496    4.7857 H   0  0  0  0  0  0
   -5.5334    4.7327    3.0281 H   0  0  0  0  0  0
   -4.0041    0.2826    3.8314 H   0  0  0  0  0  0
   -1.1033   -0.3004    4.7622 H   0  0  0  0  0  0
   -1.7802    1.3346    4.4249 H   0  0  0  0  0  0
   -1.7330    0.8190    6.8301 H   0  0  0  0  0  0
   -3.3454    1.1168    6.2380 H   0  0  0  0  0  0
   -2.1075   -1.6055    6.8639 H   0  0  0  0  0  0
   -3.4081   -0.8327    7.7308 H   0  0  0  0  0  0
   -4.2259   -2.6441    6.1844 H   0  0  0  0  0  0
   -4.9346   -1.0934    5.8208 H   0  0  0  0  0  0
   -4.2838   -2.1796    3.7635 H   0  0  0  0  0  0
   -2.6073   -2.4046    4.3898 H   0  0  0  0  0  0
  1  2  1  0  0  0
  1  5  1  0  0  0
  1  6  1  0  0  0
  1 40  1  0  0  0
  2  3  1  0  0  0
  2 41  1  0  0  0
  2 42  1  0  0  0
  3  4  1  0  0  0
  3  7  1  0  0  0
  3 43  1  0  0  0
  4  5  1  0  0  0
  4 32  1  0  0  0
  5 44  1  0  0  0
  5 45  1  0  0  0
  6 24  1  0  0  0
  6 25  2  0  0  0
  6 26  2  0  0  0
  7  8  1  0  0  0
  7  9  2  0  0  0
  8 10  1  0  0  0
  8 46  1  0  0  0
 10 11  1  0  0  0
 10 12  1  0  0  0
 10 47  1  0  0  0
 11 14  1  0  0  0
 11 15  2  0  0  0
 12 13  1  0  0  0
 12 48  1  0  0  0
 12 49  1  0  0  0
 13 50  1  0  0  0
 13 51  1  0  0  0
 13 52  1  0  0  0
 14 16  2  0  0  0
 14 17  1  0  0  0
 16 19  1  0  0  0
 17 18  1  0  0  0
 18 19  2  0  0  0
 18 23  1  0  0  0
 19 20  1  0  0  0
 20 21  2  0  0  0
 20 53  1  0  0  0
 21 22  1  0  0  0
 21 54  1  0  0  0
 22 23  2  0  0  0
 22 55  1  0  0  0
 23 56  1  0  0  0
 24 27  2  0  0  0
 24 31  1  0  0  0
 27 28  1  0  0  0
 27 57  1  0  0  0
 28 29  2  0  0  0
 28 58  1  0  0  0
 29 30  1  0  0  0
 29 59  1  0  0  0
 30 31  2  0  0  0
 30 60  1  0  0  0
 31 61  1  0  0  0
 32 33  2  0  0  0
 32 34  1  0  0  0
 34 35  1  0  0  0
 34 39  1  0  0  0
 34 62  1  0  0  0
 35 36  1  0  0  0
 35 63  1  0  0  0
 35 64  1  0  0  0
 36 37  1  0  0  0
 36 65  1  0  0  0
 36 66  1  0  0  0
 37 38  1  0  0  0
 37 67  1  0  0  0
 37 68  1  0  0  0
 38 39  1  0  0  0
 38 69  1  0  0  0
 38 70  1  0  0  0
 39 71  1  0  0  0
 39 72  1  0  0  0
M  END
> <chembl_id>
CHEMBL2380719

> <chembl_pref_name>
None

> <i_m_ct_stereo_status>
1

> <s_m_source_file>
sdf/inactives_sanitized.sdf

> <i_m_source_file_index>
481

> <i_lp_mmshare_version>
49012

> <i_f3d_flags>
0

> <s_epik_input>
W2NIXTFbY0hdW2NIXVtjSF1bY0hdYzFTKD1PKSg9TylbQ0BASF0yW0NIMl1bQ0BIXShOKFtDSDJdMilDKD1PKVtDSF0zW0NIMl1bQ0gyXVtDSDJdW0NIMl1bQ0gyXTMpQyg9TylbTkhdW0NAQEhdKFtDSDJdW0NIM10pQyg9TyljKG80KW5jKGM0NSlbY0hdW2NIXVtjSF1bY0hdNQ==

> <s_epik_cmdline>
J2VwaWtfcHl0aG9uJywgJy1waHQnLCAnMC41JywgJy1waCcsICc3LjUnLCAnLW50JywgJy1tYScsICcyMDAnLCAnLWltYWUnLCAnPGluZmlsZS5tYWU+JywgJy1vbWFlJywgJzxvdXRmaWxlLm1hZT4n

> <r_lp_tautomer_probability>
1

> <r_epik_Ionization_Penalty>
  0.0000

> <r_epik_Ionization_Penalty_Charging>
  0.0000

> <r_epik_Ionization_Penalty_Neutral>
  0.0000

> <r_epik_State_Penalty>
 -0.0000

> <r_epik_Charging_Adjusted_Penalty>
0

> <i_epik_Tot_Q>
0

> <i_epik_Tot_abs_Q>
0

> <s_lp_Force_Field>
OPLS3e

> <r_lp_Energy>
62.940607

> <b_lp_Chiralities_Consistent>
1

> <s_lp_Variant>
sdf/inactives_sanitized.sdf:481-1

$$$$
sdf/inactives_sanitized.sdf:482
                    3D
 Schrodinger Suite 2020-1.
 29 30  0  0  1  0            999 V2000
   -0.7331    0.9404   -0.1329 C   0  0  0  0  0  0
    3.5737   -2.1620   -1.7942 C   0  0  0  0  0  0
    3.0430   -1.4448   -0.7873 N   0  0  1  0  0  0
    4.0107   -2.8215   -2.6390 N   0  0  0  0  0  0
    0.1144   -0.0154    0.2955 N   0  0  0  0  0  0
    1.5762    0.0817    0.2744 C   0  0  2  0  0  0
   -0.3502    2.0418   -0.5338 O   0  0  0  0  0  0
   -2.2083    0.6094   -0.0659 C   0  0  0  0  0  0
    2.1605   -0.3227   -1.0952 C   0  0  0  0  0  0
    2.1789   -0.9188    1.2586 C   0  0  0  0  0  0
    2.5260   -2.1240    0.3908 C   0  0  0  0  0  0
   -3.1528    1.6465   -0.0676 C   0  0  0  0  0  0
   -2.6590   -0.7206   -0.0172 C   0  0  0  0  0  0
   -4.0214   -1.0028    0.0356 C   0  0  0  0  0  0
   -4.5150    1.3631   -0.0145 C   0  0  0  0  0  0
   -4.9434    0.0399    0.0375 C   0  0  0  0  0  0
   -0.2668   -0.9242    0.5132 H   0  0  0  0  0  0
    1.8770    1.0851    0.5857 H   0  0  0  0  0  0
    2.7254    0.4963   -1.5417 H   0  0  0  0  0  0
    1.3894   -0.6257   -1.8062 H   0  0  0  0  0  0
    3.1038   -0.5129    1.6747 H   0  0  0  0  0  0
    1.5544   -1.1550    2.1218 H   0  0  0  0  0  0
    3.2869   -2.7649    0.8377 H   0  0  0  0  0  0
    1.6453   -2.6969    0.0947 H   0  0  0  0  0  0
   -2.8410    2.6809   -0.1067 H   0  0  0  0  0  0
   -1.9648   -1.5487   -0.0258 H   0  0  0  0  0  0
   -4.3614   -2.0272    0.0725 H   0  0  0  0  0  0
   -5.2359    2.1675   -0.0143 H   0  0  0  0  0  0
   -6.0002   -0.1799    0.0780 H   0  0  0  0  0  0
  1  5  1  0  0  0
  1  7  2  0  0  0
  1  8  1  0  0  0
  2  3  1  0  0  0
  2  4  3  0  0  0
  3  9  1  0  0  0
  3 11  1  0  0  0
  5  6  1  0  0  0
  5 17  1  0  0  0
  6  9  1  0  0  0
  6 10  1  0  0  0
  6 18  1  0  0  0
  8 12  2  0  0  0
  8 13  1  0  0  0
  9 19  1  0  0  0
  9 20  1  0  0  0
 10 11  1  0  0  0
 10 21  1  0  0  0
 10 22  1  0  0  0
 11 23  1  0  0  0
 11 24  1  0  0  0
 12 15  1  0  0  0
 12 25  1  0  0  0
 13 14  2  0  0  0
 13 26  1  0  0  0
 14 16  1  0  0  0
 14 27  1  0  0  0
 15 16  2  0  0  0
 15 28  1  0  0  0
 16 29  1  0  0  0
M  END
> <chembl_id>
CHEMBL440590

> <chembl_pref_name>
None

> <s_m_source_file>
sdf/inactives_sanitized.sdf

> <i_m_source_file_index>
482

> <i_lp_mmshare_version>
49012

> <i_m_ct_stereo_status>
1

> <i_f3d_flags>
0

> <s_epik_input>
W2NIXTFbY0hdW2NIXVtjSF1bY0hdYzFDKD1PKVtOSF1bQ0BASF0oW0NIMl1bQ0gyXTIpW0NIMl1OMkMjTg==

> <s_epik_cmdline>
J2VwaWtfcHl0aG9uJywgJy1waHQnLCAnMC41JywgJy1waCcsICc3LjUnLCAnLW50JywgJy1tYScsICcyMDAnLCAnLWltYWUnLCAnPGluZmlsZS5tYWU+JywgJy1vbWFlJywgJzxvdXRmaWxlLm1hZT4n

> <r_lp_tautomer_probability>
1

> <r_epik_Ionization_Penalty>
  0.0000

> <r_epik_Ionization_Penalty_Charging>
  0.0000

> <r_epik_Ionization_Penalty_Neutral>
  0.0000

> <r_epik_State_Penalty>
 -0.0000

> <r_epik_Charging_Adjusted_Penalty>
0

> <i_epik_Tot_Q>
0

> <i_epik_Tot_abs_Q>
0

> <s_lp_Force_Field>
OPLS3e

> <r_lp_Energy>
23.193027

> <b_lp_Chiralities_Consistent>
1

> <s_lp_Variant>
sdf/inactives_sanitized.sdf:482-1

$$$$
sdf/inactives_sanitized.sdf:483
                    3D
 Schrodinger Suite 2020-1.
 73 76  0  0  1  0            999 V2000
   -1.0087   -2.8020   -5.9487 C   0  0  0  0  0  0
   -0.5085   -1.7032   -5.3266 O   0  0  0  0  0  0
   -0.7316   -1.8558   -3.9922 C   0  0  0  0  0  0
   -1.4165   -3.0513   -3.7759 C   0  0  0  0  0  0
   -1.5758   -3.6597   -5.0219 C   0  0  0  0  0  0
   -0.3325   -0.7956   -3.1061 C   0  0  0  0  0  0
   -0.4235   -1.1099   -1.8008 N   0  0  0  0  0  0
    0.0532    0.2936   -3.5347 O   0  0  0  0  0  0
   -0.0822   -0.2266   -0.6811 C   0  0  2  0  0  0
    1.4483   -0.0644   -0.5460 C   0  0  0  0  0  0
    1.8873    1.1879   -0.3231 N   0  0  0  0  0  0
    2.1797   -1.0559   -0.5842 O   0  0  0  0  0  0
    3.2828    1.5737   -0.0650 C   0  0  2  0  0  0
    3.5732    1.5163    1.4625 C   0  0  0  0  0  0
    5.0258    1.6829    1.9446 C   0  0  0  0  0  0
    3.5782    2.9689   -0.6721 C   0  0  0  0  0  0
    5.7318    2.8605    1.3931 N   0  0  0  0  0  0
    5.0555    3.2429   -1.0361 C   0  0  0  0  0  0
    6.1224    2.7365   -0.0316 C   0  0  1  0  0  0
    7.5215    3.3148   -0.3435 C   0  0  0  0  0  0
    2.6904    1.2940    2.2945 O   0  0  0  0  0  0
    5.6128    5.1399    1.4001 O   0  0  0  0  0  0
    5.6550    4.0737    2.0194 C   0  0  0  0  0  0
    5.6738    4.1144    3.5311 C   0  0  0  0  0  0
    4.8622    5.0343    4.1250 N   0  0  0  0  0  0
    4.8653    5.1202    5.4794 C   0  0  0  0  0  0
    5.6687    4.3155    6.2873 C   0  0  0  0  0  0
    6.5080    3.3852    5.6733 C   0  0  0  0  0  0
    6.5202    3.2819    4.2809 C   0  0  0  0  0  0
   -0.6829   -0.7305    0.6651 C   0  0  0  0  0  0
   -2.2270   -0.5846    0.8781 C   0  0  0  0  0  0
   -2.5227   -1.1840    2.2897 C   0  0  0  0  0  0
   -3.9813   -0.9806    2.7600 C   0  0  0  0  0  0
   -4.3813    0.5101    2.7283 C   0  0  0  0  0  0
   -4.0444    1.1926    1.3856 C   0  0  0  0  0  0
   -2.5782    0.9330    0.9704 C   0  0  0  0  0  0
   -3.0821   -1.2922   -0.2076 C   0  0  0  0  0  0
   -0.8984   -2.8349   -7.0226 H   0  0  0  0  0  0
   -1.7586   -3.4389   -2.8272 H   0  0  0  0  0  0
   -2.0561   -4.6056   -5.2247 H   0  0  0  0  0  0
   -0.7358   -2.0344   -1.5438 H   0  0  0  0  0  0
   -0.5004    0.7591   -0.8895 H   0  0  0  0  0  0
    1.2089    1.9350   -0.2923 H   0  0  0  0  0  0
    3.9390    0.8472   -0.5498 H   0  0  0  0  0  0
    5.0090    1.6884    3.0334 H   0  0  0  0  0  0
    5.5794    0.7829    1.6754 H   0  0  0  0  0  0
    2.9917    3.1077   -1.5823 H   0  0  0  0  0  0
    3.2226    3.7488    0.0048 H   0  0  0  0  0  0
    5.1631    4.3206   -1.1687 H   0  0  0  0  0  0
    5.2685    2.8067   -2.0131 H   0  0  0  0  0  0
    6.2149    1.6649   -0.2152 H   0  0  0  0  0  0
    7.7565    3.1950   -1.4014 H   0  0  0  0  0  0
    8.2994    2.7904    0.2123 H   0  0  0  0  0  0
    7.5935    4.3823   -0.1358 H   0  0  0  0  0  0
    4.2065    5.8559    5.9164 H   0  0  0  0  0  0
    5.6454    4.4135    7.3627 H   0  0  0  0  0  0
    7.1474    2.7525    6.2711 H   0  0  0  0  0  0
    7.1783    2.5713    3.8011 H   0  0  0  0  0  0
   -0.4127   -1.7821    0.7851 H   0  0  0  0  0  0
   -0.1824   -0.2165    1.4904 H   0  0  0  0  0  0
   -2.2922   -2.2508    2.2967 H   0  0  0  0  0  0
   -1.8596   -0.7412    3.0358 H   0  0  0  0  0  0
   -4.6684   -1.5652    2.1487 H   0  0  0  0  0  0
   -4.0949   -1.3661    3.7740 H   0  0  0  0  0  0
   -5.4453    0.6150    2.9435 H   0  0  0  0  0  0
   -3.8588    1.0333    3.5308 H   0  0  0  0  0  0
   -4.7260    0.8423    0.6100 H   0  0  0  0  0  0
   -4.2181    2.2662    1.4676 H   0  0  0  0  0  0
   -1.9200    1.4299    1.6859 H   0  0  0  0  0  0
   -2.3983    1.4272    0.0158 H   0  0  0  0  0  0
   -4.1463   -1.3078    0.0197 H   0  0  0  0  0  0
   -2.7692   -2.3284   -0.3388 H   0  0  0  0  0  0
   -2.9880   -0.7958   -1.1733 H   0  0  0  0  0  0
  1  5  2  0  0  0
  1  2  1  0  0  0
  1 38  1  0  0  0
  2  3  1  0  0  0
  3  6  1  0  0  0
  3  4  2  0  0  0
  4  5  1  0  0  0
  4 39  1  0  0  0
  5 40  1  0  0  0
  6  7  1  0  0  0
  6  8  2  0  0  0
  7  9  1  0  0  0
  7 41  1  0  0  0
  9 10  1  0  0  0
  9 30  1  0  0  0
  9 42  1  0  0  0
 10 11  1  0  0  0
 10 12  2  0  0  0
 11 13  1  0  0  0
 11 43  1  0  0  0
 13 14  1  0  0  0
 13 16  1  0  0  0
 13 44  1  0  0  0
 14 21  2  0  0  0
 14 15  1  0  0  0
 15 17  1  0  0  0
 15 45  1  0  0  0
 15 46  1  0  0  0
 16 18  1  0  0  0
 16 47  1  0  0  0
 16 48  1  0  0  0
 17 19  1  0  0  0
 17 23  1  0  0  0
 18 19  1  0  0  0
 18 49  1  0  0  0
 18 50  1  0  0  0
 19 20  1  0  0  0
 19 51  1  0  0  0
 20 52  1  0  0  0
 20 53  1  0  0  0
 20 54  1  0  0  0
 22 23  2  0  0  0
 23 24  1  0  0  0
 24 25  2  0  0  0
 24 29  1  0  0  0
 25 26  1  0  0  0
 26 27  2  0  0  0
 26 55  1  0  0  0
 27 28  1  0  0  0
 27 56  1  0  0  0
 28 29  2  0  0  0
 28 57  1  0  0  0
 29 58  1  0  0  0
 30 31  1  0  0  0
 30 59  1  0  0  0
 30 60  1  0  0  0
 31 32  1  0  0  0
 31 36  1  0  0  0
 31 37  1  0  0  0
 32 33  1  0  0  0
 32 61  1  0  0  0
 32 62  1  0  0  0
 33 34  1  0  0  0
 33 63  1  0  0  0
 33 64  1  0  0  0
 34 35  1  0  0  0
 34 65  1  0  0  0
 34 66  1  0  0  0
 35 36  1  0  0  0
 35 67  1  0  0  0
 35 68  1  0  0  0
 36 69  1  0  0  0
 36 70  1  0  0  0
 37 71  1  0  0  0
 37 72  1  0  0  0
 37 73  1  0  0  0
M  END
> <chembl_id>
CHEMBL1807703

> <chembl_pref_name>
None

> <i_m_ct_stereo_status>
1

> <s_m_source_file>
sdf/inactives_sanitized.sdf

> <i_m_source_file_index>
483

> <i_lp_mmshare_version>
49012

> <i_f3d_flags>
0

> <s_epik_input>
W2NIXTFbY0hdW2NIXW9jMUMoPU8pW05IXVtDQEBIXShbQ0gyXUMyKFtDSDNdKVtDSDJdW0NIMl1bQ0gyXVtDSDJdW0NIMl0yKUMoPU8pW05IXVtDQEBIXTNDKD1PKVtDSDJdTihbQ0BIXShbQ0gzXSlbQ0gyXVtDSDJdMylDKD1PKWM0bltjSF1bY0hdW2NIXVtjSF00

> <s_epik_cmdline>
J2VwaWtfcHl0aG9uJywgJy1waHQnLCAnMC41JywgJy1waCcsICc3LjUnLCAnLW50JywgJy1tYScsICcyMDAnLCAnLWltYWUnLCAnPGluZmlsZS5tYWU+JywgJy1vbWFlJywgJzxvdXRmaWxlLm1hZT4n

> <r_lp_tautomer_probability>
1

> <r_epik_Ionization_Penalty>
  0.0000

> <r_epik_Ionization_Penalty_Charging>
  0.0000

> <r_epik_Ionization_Penalty_Neutral>
  0.0000

> <r_epik_State_Penalty>
 -0.0000

> <r_epik_Charging_Adjusted_Penalty>
0

> <i_epik_Tot_Q>
0

> <i_epik_Tot_abs_Q>
0

> <s_lp_Force_Field>
OPLS3e

> <r_lp_Energy>
63.035595

> <b_lp_Chiralities_Consistent>
1

> <s_lp_Variant>
sdf/inactives_sanitized.sdf:483-1

$$$$
sdf/inactives_sanitized.sdf:484
                    3D
 Schrodinger Suite 2020-1.
 71 75  0  0  1  0            999 V2000
   -3.6422    1.2302   -0.0514 N   0  0  0  0  0  0
   -4.9018    0.7170   -0.0825 C   0  0  0  0  0  0
   -5.2715   -0.5799   -0.2437 N   0  0  0  0  0  0
   -4.2684   -1.4843   -0.3908 C   0  0  0  0  0  0
   -2.6843    0.3013   -0.2017 C   0  0  0  0  0  0
   -2.9206   -1.0882   -0.3753 C   0  0  0  0  0  0
   -1.6449   -1.7162   -0.4867 C   0  0  0  0  0  0
   -0.6776   -0.7279   -0.3781 C   0  0  0  0  0  0
   -1.3118    0.5007   -0.2179 N   0  0  0  0  0  0
   -5.9833    1.6748    0.0759 C   0  0  0  0  0  0
   -6.8444    2.4380    0.2021 N   0  0  0  0  0  0
    0.8339   -0.8529   -0.4166 C   0  0  0  0  0  0
    1.3541   -0.5161    0.8685 O   0  0  0  0  0  0
    2.6240    0.0143    0.9792 C   0  0  0  0  0  0
   -0.6496    1.7950   -0.0324 C   0  0  0  0  0  0
   -0.5540    2.1517    1.4668 C   0  0  0  0  0  0
    0.4214    3.3098    1.7786 C   0  0  0  0  0  0
    0.5944    3.4996    3.3034 C   0  0  0  0  0  0
    1.6552    4.5739    3.6166 C   0  0  0  0  0  0
    1.3107    5.9192    2.9414 C   0  0  0  0  0  0
    1.0173    5.7653    1.4329 C   0  0  0  0  0  0
   -0.0237    4.6585    1.1642 C   0  0  0  0  0  0
    3.5953   -0.0429   -0.0309 C   0  0  0  0  0  0
    4.8439    0.5404    0.1656 C   0  0  0  0  0  0
    5.1390    1.1871    1.3698 C   0  0  0  0  0  0
    4.1783    1.2257    2.3841 C   0  0  0  0  0  0
    2.9340    0.6343    2.1893 C   0  0  0  0  0  0
    6.5078    1.8387    1.5776 C   0  0  0  0  0  0
    6.8047    2.9640    0.5491 C   0  0  0  0  0  0
    8.2357    3.5333    0.7031 C   0  0  0  0  0  0
    9.1684    2.3950    0.6350 N   0  0  0  0  0  0
    9.0422    1.4729    1.7765 C   0  0  0  0  0  0
    7.6546    0.7976    1.6672 C   0  0  0  0  0  0
    9.6917    2.0011   -0.5563 C   0  0  0  0  0  0
   10.6552    0.8105   -0.5815 C   0  0  0  0  0  0
    9.5514    2.6446   -1.5976 O   0  0  0  0  0  0
   -4.5529   -2.5186   -0.5170 H   0  0  0  0  0  0
   -1.4405   -2.7681   -0.6230 H   0  0  0  0  0  0
    1.1278   -1.8793   -0.6406 H   0  0  0  0  0  0
    1.2375   -0.2332   -1.2186 H   0  0  0  0  0  0
    0.3424    1.7577   -0.4818 H   0  0  0  0  0  0
   -1.2010    2.5556   -0.5866 H   0  0  0  0  0  0
   -1.5478    2.3897    1.8499 H   0  0  0  0  0  0
   -0.2260    1.2712    2.0217 H   0  0  0  0  0  0
    1.3999    3.0573    1.3647 H   0  0  0  0  0  0
   -0.3628    3.7471    3.7655 H   0  0  0  0  0  0
    0.8870    2.5555    3.7645 H   0  0  0  0  0  0
    1.7409    4.7102    4.6953 H   0  0  0  0  0  0
    2.6328    4.2312    3.2734 H   0  0  0  0  0  0
    0.4373    6.3514    3.4322 H   0  0  0  0  0  0
    2.1240    6.6301    3.0921 H   0  0  0  0  0  0
    0.6668    6.7136    1.0240 H   0  0  0  0  0  0
    1.9428    5.5291    0.9055 H   0  0  0  0  0  0
   -0.1731    4.5548    0.0895 H   0  0  0  0  0  0
   -1.0029    4.9435    1.5533 H   0  0  0  0  0  0
    3.4025   -0.5406   -0.9689 H   0  0  0  0  0  0
    5.5812    0.4890   -0.6224 H   0  0  0  0  0  0
    4.3887    1.7138    3.3246 H   0  0  0  0  0  0
    2.1973    0.6730    2.9780 H   0  0  0  0  0  0
    6.4526    2.3246    2.5542 H   0  0  0  0  0  0
    6.6717    2.6139   -0.4757 H   0  0  0  0  0  0
    6.1122    3.7928    0.7006 H   0  0  0  0  0  0
    8.4949    4.3311    0.0053 H   0  0  0  0  0  0
    8.3594    3.9901    1.6859 H   0  0  0  0  0  0
    9.8853    0.7899    1.8809 H   0  0  0  0  0  0
    9.0944    2.0818    2.6801 H   0  0  0  0  0  0
    7.5253    0.1862    2.5611 H   0  0  0  0  0  0
    7.6478    0.1243    0.8086 H   0  0  0  0  0  0
   10.1173   -0.1205   -0.4016 H   0  0  0  0  0  0
   11.4299    0.9218    0.1774 H   0  0  0  0  0  0
   11.1477    0.7324   -1.5512 H   0  0  0  0  0  0
  1  2  2  0  0  0
  1  5  1  0  0  0
  2 10  1  0  0  0
  2  3  1  0  0  0
  3  4  2  0  0  0
  4  6  1  0  0  0
  4 37  1  0  0  0
  5  9  1  0  0  0
  5  6  2  0  0  0
  6  7  1  0  0  0
  7  8  2  0  0  0
  7 38  1  0  0  0
  8  9  1  0  0  0
  8 12  1  0  0  0
  9 15  1  0  0  0
 10 11  3  0  0  0
 12 13  1  0  0  0
 12 39  1  0  0  0
 12 40  1  0  0  0
 13 14  1  0  0  0
 14 23  2  0  0  0
 14 27  1  0  0  0
 15 16  1  0  0  0
 15 41  1  0  0  0
 15 42  1  0  0  0
 16 17  1  0  0  0
 16 43  1  0  0  0
 16 44  1  0  0  0
 17 18  1  0  0  0
 17 22  1  0  0  0
 17 45  1  0  0  0
 18 19  1  0  0  0
 18 46  1  0  0  0
 18 47  1  0  0  0
 19 20  1  0  0  0
 19 48  1  0  0  0
 19 49  1  0  0  0
 20 21  1  0  0  0
 20 50  1  0  0  0
 20 51  1  0  0  0
 21 22  1  0  0  0
 21 52  1  0  0  0
 21 53  1  0  0  0
 22 54  1  0  0  0
 22 55  1  0  0  0
 23 24  1  0  0  0
 23 56  1  0  0  0
 24 25  2  0  0  0
 24 57  1  0  0  0
 25 26  1  0  0  0
 25 28  1  0  0  0
 26 27  2  0  0  0
 26 58  1  0  0  0
 27 59  1  0  0  0
 28 29  1  0  0  0
 28 33  1  0  0  0
 28 60  1  0  0  0
 29 30  1  0  0  0
 29 61  1  0  0  0
 29 62  1  0  0  0
 30 31  1  0  0  0
 30 63  1  0  0  0
 30 64  1  0  0  0
 31 32  1  0  0  0
 31 34  1  0  0  0
 32 33  1  0  0  0
 32 65  1  0  0  0
 32 66  1  0  0  0
 33 67  1  0  0  0
 33 68  1  0  0  0
 34 35  1  0  0  0
 34 36  2  0  0  0
 35 69  1  0  0  0
 35 70  1  0  0  0
 35 71  1  0  0  0
M  END
> <chembl_id>
CHEMBL519459

> <chembl_pref_name>
None

> <s_m_source_file>
sdf/inactives_sanitized.sdf

> <i_m_source_file_index>
484

> <i_lp_mmshare_version>
49012

> <i_m_ct_stereo_status>
1

> <i_f3d_flags>
0

> <s_epik_input>
W0NIMl0xW0NIMl1bQ0gyXVtDSDJdW0NIMl1bQ0hdMVtDSDJdW0NIMl1uMmMoW2NIXWMoYzIzKVtjSF1uYyhuMylDI04pW0NIMl1PYzRbY0hdW2NIXWMoW2NIXVtjSF00KVtDSF01W0NIMl1bQ0gyXU4oW0NIMl1bQ0gyXTUpQyg9TylbQ0gzXQ==

> <s_epik_cmdline>
J2VwaWtfcHl0aG9uJywgJy1waHQnLCAnMC41JywgJy1waCcsICc3LjUnLCAnLW50JywgJy1tYScsICcyMDAnLCAnLWltYWUnLCAnPGluZmlsZS5tYWU+JywgJy1vbWFlJywgJzxvdXRmaWxlLm1hZT4n

> <r_lp_tautomer_probability>
1

> <r_epik_Ionization_Penalty>
  0.0000

> <r_epik_Ionization_Penalty_Charging>
  0.0000

> <r_epik_Ionization_Penalty_Neutral>
  0.0000

> <r_epik_State_Penalty>
 -0.0000

> <r_epik_Charging_Adjusted_Penalty>
0

> <i_epik_Tot_Q>
0

> <i_epik_Tot_abs_Q>
0

> <s_lp_Force_Field>
OPLS3e

> <r_lp_Energy>
39.641079

> <b_lp_Chiralities_Consistent>
1

> <s_lp_Variant>
sdf/inactives_sanitized.sdf:484-1

$$$$
sdf/inactives_sanitized.sdf:485
                    3D
 Schrodinger Suite 2020-1.
 58 61  0  0  1  0            999 V2000
   -1.4993    3.4450   -2.6010 C   0  0  1  0  0  0
   -2.7302    3.3530   -3.4205 N   0  0  0  0  0  0
   -2.2405    2.6112   -1.5165 C   0  0  1  0  0  0
   -0.0985    2.6364   -3.6046 S   0  0  0  0  0  0
   -3.3229    2.3850   -2.6147 C   0  0  0  0  0  0
   -1.6141    1.3687   -1.0751 N   0  0  0  0  0  0
   -0.5333    1.3207   -0.2794 C   0  0  0  0  0  0
    2.1765   -0.3640   -1.1058 C   0  0  0  0  0  0
   -0.0059   -0.0908    0.0653 C   0  0  1  0  0  0
    1.4640   -0.1481    0.0683 N   0  0  0  0  0  0
    1.1940    3.0269   -3.0324 O   0  0  0  0  0  0
   -0.3798    1.2097   -3.8023 O   0  0  0  0  0  0
   -4.2876    1.6370   -2.7616 O   0  0  0  0  0  0
    0.0163    2.3178    0.1926 O   0  0  0  0  0  0
   -2.9140    3.8548   -4.7828 C   0  0  0  0  0  0
   -0.5287   -0.6365    1.4192 C   0  0  0  0  0  0
    1.7003   -0.5474   -2.2289 O   0  0  0  0  0  0
    3.4932   -0.3329   -0.8255 O   0  0  0  0  0  0
   -0.3727    3.5411   -5.2366 C   0  0  0  0  0  0
   -1.8168    3.2663   -5.7057 C   0  0  0  0  0  0
    4.4606   -0.4785   -1.8589 C   0  0  0  0  0  0
   -2.0421   -0.7114    1.5636 C   0  0  0  0  0  0
    5.8571   -0.4421   -1.2635 C   0  0  0  0  0  0
   -2.7579    0.3523    2.1546 C   0  0  0  0  0  0
   -2.7589   -1.7609    0.9506 C   0  0  0  0  0  0
    6.6757   -1.5717   -1.3396 C   0  0  0  0  0  0
    6.3224    0.7230   -0.6476 C   0  0  0  0  0  0
    7.6041    0.7563   -0.1043 C   0  0  0  0  0  0
   -4.1459    0.3257    2.1818 C   0  0  0  0  0  0
   -4.1471   -1.7685    0.9875 C   0  0  0  0  0  0
    7.9576   -1.5375   -0.7962 C   0  0  0  0  0  0
   -4.8368   -0.7326    1.6050 C   0  0  0  0  0  0
    8.4156   -0.3740   -0.1810 C   0  0  0  0  0  0
   -1.2039    4.4642   -2.3495 H   0  0  0  0  0  0
   -2.5923    3.1433   -0.6300 H   0  0  0  0  0  0
   -2.0509    0.5066   -1.3691 H   0  0  0  0  0  0
   -0.3942   -0.7884   -0.6828 H   0  0  0  0  0  0
    1.9595    0.0367    0.9280 H   0  0  0  0  0  0
   -3.9158    3.5945   -5.1264 H   0  0  0  0  0  0
   -2.8334    4.9407   -4.7274 H   0  0  0  0  0  0
   -0.1339   -1.6420    1.5758 H   0  0  0  0  0  0
   -0.1312   -0.0401    2.2428 H   0  0  0  0  0  0
   -0.2292    4.6082   -5.0655 H   0  0  0  0  0  0
    0.3668    3.1929   -5.9575 H   0  0  0  0  0  0
   -1.9471    3.6893   -6.7021 H   0  0  0  0  0  0
   -1.9750    2.1937   -5.8290 H   0  0  0  0  0  0
    4.3054   -1.4186   -2.3917 H   0  0  0  0  0  0
    4.3622    0.3267   -2.5890 H   0  0  0  0  0  0
   -2.2294    1.1915    2.5831 H   0  0  0  0  0  0
   -2.2312   -2.5581    0.4475 H   0  0  0  0  0  0
    6.3221   -2.4743   -1.8168 H   0  0  0  0  0  0
    5.6923    1.5990   -0.5889 H   0  0  0  0  0  0
    7.9672    1.6540    0.3741 H   0  0  0  0  0  0
   -4.6906    1.1358    2.6440 H   0  0  0  0  0  0
   -4.6931   -2.5778    0.5253 H   0  0  0  0  0  0
    8.5938   -2.4087   -0.8518 H   0  0  0  0  0  0
   -5.9167   -0.7439    1.6257 H   0  0  0  0  0  0
    9.4098   -0.3480    0.2405 H   0  0  0  0  0  0
  1  2  1  0  0  0
  1  3  1  0  0  0
  1  4  1  0  0  0
  1 34  1  0  0  0
  2 15  1  0  0  0
  2  5  1  0  0  0
  3  5  1  0  0  0
  3  6  1  0  0  0
  3 35  1  0  0  0
  4 11  2  0  0  0
  4 12  2  0  0  0
  4 19  1  0  0  0
  5 13  2  0  0  0
  6  7  1  0  0  0
  6 36  1  0  0  0
  7  9  1  0  0  0
  7 14  2  0  0  0
  8 10  1  0  0  0
  8 17  2  0  0  0
  8 18  1  0  0  0
  9 10  1  0  0  0
  9 16  1  0  0  0
  9 37  1  0  0  0
 10 38  1  0  0  0
 15 20  1  0  0  0
 15 39  1  0  0  0
 15 40  1  0  0  0
 16 22  1  0  0  0
 16 41  1  0  0  0
 16 42  1  0  0  0
 18 21  1  0  0  0
 19 20  1  0  0  0
 19 43  1  0  0  0
 19 44  1  0  0  0
 20 45  1  0  0  0
 20 46  1  0  0  0
 21 23  1  0  0  0
 21 47  1  0  0  0
 21 48  1  0  0  0
 22 24  2  0  0  0
 22 25  1  0  0  0
 23 26  2  0  0  0
 23 27  1  0  0  0
 24 29  1  0  0  0
 24 49  1  0  0  0
 25 30  2  0  0  0
 25 50  1  0  0  0
 26 31  1  0  0  0
 26 51  1  0  0  0
 27 28  2  0  0  0
 27 52  1  0  0  0
 28 33  1  0  0  0
 28 53  1  0  0  0
 29 32  2  0  0  0
 29 54  1  0  0  0
 30 32  1  0  0  0
 30 55  1  0  0  0
 31 33  2  0  0  0
 31 56  1  0  0  0
 32 57  1  0  0  0
 33 58  1  0  0  0
M  END
> <chembl_id>
CHEMBL115822

> <chembl_pref_name>
None

> <i_m_ct_stereo_status>
1

> <s_m_source_file>
sdf/inactives_sanitized.sdf

> <i_m_source_file_index>
485

> <i_lp_mmshare_version>
49012

> <i_f3d_flags>
0

> <s_epik_input>
Tz1TMSg9TylbQ0gyXVtDSDJdW0NIMl1OKFtDQEhdMTIpQyg9TylbQ0BIXTJbTkhdQyg9TylbQ0BIXShbQ0gyXWMzW2NIXVtjSF1bY0hdW2NIXVtjSF0zKVtOSF1DKD1PKU9bQ0gyXWM0W2NIXVtjSF1bY0hdW2NIXVtjSF00

> <s_epik_cmdline>
J2VwaWtfcHl0aG9uJywgJy1waHQnLCAnMC41JywgJy1waCcsICc3LjUnLCAnLW50JywgJy1tYScsICcyMDAnLCAnLWltYWUnLCAnPGluZmlsZS5tYWU+JywgJy1vbWFlJywgJzxvdXRmaWxlLm1hZT4n

> <r_lp_tautomer_probability>
1

> <r_epik_Ionization_Penalty>
  0.0000

> <r_epik_Ionization_Penalty_Charging>
  0.0000

> <r_epik_Ionization_Penalty_Neutral>
  0.0000

> <r_epik_State_Penalty>
 -0.0000

> <r_epik_Charging_Adjusted_Penalty>
0

> <i_epik_Tot_Q>
0

> <i_epik_Tot_abs_Q>
0

> <s_epik_Chemistry_Notes>
This compound has an ester and may undergo hydrolysis at high or low pH.

> <s_lp_Force_Field>
OPLS3e

> <r_lp_Energy>
38.462106

> <b_lp_Chiralities_Consistent>
1

> <s_lp_Variant>
sdf/inactives_sanitized.sdf:485-1

$$$$
sdf/inactives_sanitized.sdf:486
                    3D
 Schrodinger Suite 2020-1.
 61 62  0  0  1  0            999 V2000
    5.8982   -6.8764   -1.1309 O   0  0  0  0  0  0
    4.7664   -6.8909   -2.0630 S   0  0  0  0  0  0
    3.4202   -7.2143   -1.5762 O   0  0  0  0  0  0
   -2.3641   -5.2077    0.1090 C   0  0  0  0  0  0
   -1.4982   -4.0356   -0.4372 C   0  0  0  0  0  0
   -0.9903   -4.4708   -1.8433 C   0  0  0  0  0  0
   -2.6927   -0.3759    0.2060 C   0  0  0  0  0  0
   -1.8683   -1.3777   -0.3528 C   0  0  0  0  0  0
   -0.5508   -1.0550   -0.7077 C   0  0  0  0  0  0
   -0.0107    0.2121   -0.4595 C   0  0  0  0  0  0
   -0.8367    1.1993    0.0794 C   0  0  0  0  0  0
   -2.1584    0.9096    0.4063 C   0  0  0  0  0  0
   -2.3979   -2.7604   -0.6464 C   0  0  0  0  0  0
   -3.5640   -2.9262   -1.0138 O   0  0  0  0  0  0
   -0.3561   -3.7842    0.5909 C   0  0  0  0  0  0
   -0.6544   -3.3101    1.8805 C   0  0  0  0  0  0
    0.3563   -3.0625    2.8093 C   0  0  0  0  0  0
    1.6869   -3.3018    2.4715 C   0  0  0  0  0  0
    2.0039   -3.7951    1.2079 C   0  0  0  0  0  0
    0.9916   -4.0400    0.2805 C   0  0  0  0  0  0
    3.6496   -4.1006    0.7857 Cl  0  0  0  0  0  0
   -0.0416   -2.4550    4.3746 Cl  0  0  0  0  0  0
   -3.9942   -0.7040    0.5534 O   0  0  0  0  0  0
   -4.8415    0.2748    1.1457 C   0  0  0  0  0  0
    1.4360    0.5089   -0.7588 C   0  0  0  0  0  0
    1.7873    1.6160   -1.1695 O   0  0  0  0  0  0
    2.2821   -0.5066   -0.5090 N   0  0  0  0  0  0
    3.7281   -0.5095   -0.7433 C   0  0  0  0  0  0
    4.1369   -1.4839   -1.8676 C   0  0  0  0  0  0
    3.1838   -2.1509   -2.5500 N   0  0  0  0  0  0
    5.3351   -1.6333   -2.1053 O   0  0  0  0  0  0
    3.4495   -3.1908   -3.5389 C   0  0  0  0  0  0
    3.5901   -4.5614   -2.9027 C   0  0  0  0  0  0
    4.7220   -5.2871   -2.8778 C   0  0  0  0  0  0
    5.1809   -8.0733   -3.4723 C   0  0  0  0  0  0
   -2.8560   -4.9539    1.0494 H   0  0  0  0  0  0
   -1.7564   -6.0945    0.2963 H   0  0  0  0  0  0
   -3.1470   -5.5070   -0.5901 H   0  0  0  0  0  0
   -0.3284   -3.7320   -2.2967 H   0  0  0  0  0  0
   -1.8131   -4.6308   -2.5429 H   0  0  0  0  0  0
   -0.4413   -5.4126   -1.7980 H   0  0  0  0  0  0
    0.0752   -1.8012   -1.1742 H   0  0  0  0  0  0
   -0.4567    2.1935    0.2686 H   0  0  0  0  0  0
   -2.7526    1.7044    0.8302 H   0  0  0  0  0  0
   -1.6801   -3.1156    2.1596 H   0  0  0  0  0  0
    2.4708   -3.1097    3.1897 H   0  0  0  0  0  0
    1.2796   -4.4209   -0.6862 H   0  0  0  0  0  0
   -5.8142   -0.1714    1.3520 H   0  0  0  0  0  0
   -5.0030    1.1222    0.4779 H   0  0  0  0  0  0
   -4.4366    0.6345    2.0928 H   0  0  0  0  0  0
    1.8983   -1.3619   -0.1350 H   0  0  0  0  0  0
    4.0966    0.4887   -0.9840 H   0  0  0  0  0  0
    4.2176   -0.8161    0.1815 H   0  0  0  0  0  0
    2.2153   -1.9824   -2.3206 H   0  0  0  0  0  0
    2.5880   -3.2293   -4.2061 H   0  0  0  0  0  0
    4.3053   -2.9352   -4.1692 H   0  0  0  0  0  0
    2.6952   -4.9474   -2.4374 H   0  0  0  0  0  0
    5.6455   -4.9490   -3.3238 H   0  0  0  0  0  0
    5.2496   -9.0844   -3.0722 H   0  0  0  0  0  0
    6.1347   -7.7836   -3.9128 H   0  0  0  0  0  0
    4.3921   -8.0235   -4.2226 H   0  0  0  0  0  0
  1  2  2  0  0  0
  2  3  2  0  0  0
  2 34  1  0  0  0
  2 35  1  0  0  0
  4  5  1  0  0  0
  4 36  1  0  0  0
  4 37  1  0  0  0
  4 38  1  0  0  0
  5  6  1  0  0  0
  5 13  1  0  0  0
  5 15  1  0  0  0
  6 39  1  0  0  0
  6 40  1  0  0  0
  6 41  1  0  0  0
  7  8  2  0  0  0
  7 12  1  0  0  0
  7 23  1  0  0  0
  8  9  1  0  0  0
  8 13  1  0  0  0
  9 10  2  0  0  0
  9 42  1  0  0  0
 10 11  1  0  0  0
 10 25  1  0  0  0
 11 12  2  0  0  0
 11 43  1  0  0  0
 12 44  1  0  0  0
 13 14  2  0  0  0
 15 16  2  0  0  0
 15 20  1  0  0  0
 16 17  1  0  0  0
 16 45  1  0  0  0
 17 18  2  0  0  0
 17 22  1  0  0  0
 18 19  1  0  0  0
 18 46  1  0  0  0
 19 20  2  0  0  0
 19 21  1  0  0  0
 20 47  1  0  0  0
 23 24  1  0  0  0
 24 48  1  0  0  0
 24 49  1  0  0  0
 24 50  1  0  0  0
 25 26  2  0  0  0
 25 27  1  0  0  0
 27 28  1  0  0  0
 27 51  1  0  0  0
 28 29  1  0  0  0
 28 52  1  0  0  0
 28 53  1  0  0  0
 29 30  1  0  0  0
 29 31  2  0  0  0
 30 32  1  0  0  0
 30 54  1  0  0  0
 32 33  1  0  0  0
 32 55  1  0  0  0
 32 56  1  0  0  0
 33 34  2  0  0  0
 33 57  1  0  0  0
 34 58  1  0  0  0
 35 59  1  0  0  0
 35 60  1  0  0  0
 35 61  1  0  0  0
M  END
> <chembl_id>
CHEMBL3354496

> <chembl_pref_name>
None

> <s_m_source_file>
sdf/inactives_sanitized.sdf

> <i_m_source_file_index>
486

> <i_lp_mmshare_version>
49012

> <i_m_ct_stereo_status>
1

> <i_f3d_flags>
0

> <s_epik_input>
Tz1TKD1PKShbQ0gzXSlcW0NIXT1bQ0hdXFtDSDJdW05IXUMoPU8pW0NIMl1bTkhdQyg9TyljKFtjSF1bY0hdMSlbY0hdYyhjMU9bQ0gzXSlDKD1PKUMoW0NIM10pKFtDSDNdKWMyW2NIXWMoQ2wpW2NIXWMoQ2wpW2NIXTI=

> <s_epik_cmdline>
J2VwaWtfcHl0aG9uJywgJy1waHQnLCAnMC41JywgJy1waCcsICc3LjUnLCAnLW50JywgJy1tYScsICcyMDAnLCAnLWltYWUnLCAnPGluZmlsZS5tYWU+JywgJy1vbWFlJywgJzxvdXRmaWxlLm1hZT4n

> <r_lp_tautomer_probability>
1

> <r_epik_Ionization_Penalty>
  0.0000

> <r_epik_Ionization_Penalty_Charging>
  0.0000

> <r_epik_Ionization_Penalty_Neutral>
  0.0000

> <r_epik_State_Penalty>
 -0.0000

> <r_epik_Charging_Adjusted_Penalty>
0

> <i_epik_Tot_Q>
0

> <i_epik_Tot_abs_Q>
0

> <s_lp_Force_Field>
OPLS3e

> <r_lp_Energy>
34.836094

> <b_lp_Chiralities_Consistent>
1

> <s_lp_Variant>
sdf/inactives_sanitized.sdf:486-1

$$$$
sdf/inactives_sanitized.sdf:487
                    3D
 Schrodinger Suite 2020-1.
 47 47  0  0  1  0            999 V2000
   -4.0835    2.4202    1.0345 C   0  0  0  0  0  0
   -3.5211    3.8496    1.4076 C   0  0  0  0  0  0
   -1.0859    1.3945    0.2001 C   0  0  0  0  0  0
   -0.2941    0.3568    0.5533 O   0  0  0  0  0  0
    1.1027    0.5186    0.8362 C   0  0  0  0  0  0
   -3.6451    4.1145    2.7212 N   0  0  0  0  0  0
   -1.1863    4.2742    5.0858 S   0  0  0  0  0  0
   -1.7194    5.2529    3.7435 C   0  0  0  0  0  0
   -2.3872    0.9338    0.0516 N   0  0  0  0  0  0
   -3.5249    1.8033   -0.2624 C   0  0  0  0  0  0
   -4.8824    1.8194    1.7571 O   0  0  0  0  0  0
    0.4662    4.7231    4.8364 C   0  0  0  0  0  0
   -0.7022    2.5563    0.0506 O   0  0  0  0  0  0
   -3.0240    4.5931    0.5602 O   0  0  0  0  0  0
   -0.6196    5.8770    3.1554 C   0  0  0  0  0  0
    0.6042    5.5814    3.7616 C   0  0  0  0  0  0
   -3.1827    5.3419    3.3642 C   0  0  0  0  0  0
    1.8841   -0.5589    0.0253 C   0  0  0  0  0  0
    1.3424    0.5115    2.3802 C   0  0  0  0  0  0
    0.5686    1.6342    3.1029 C   0  0  0  0  0  0
    1.6964   -0.3774   -1.4947 C   0  0  0  0  0  0
    1.5642   -2.0084    0.4476 C   0  0  0  0  0  0
    2.8369    0.5962    2.7553 C   0  0  0  0  0  0
    1.4523    1.4843    0.4647 H   0  0  0  0  0  0
   -4.0777    3.4241    3.3181 H   0  0  0  0  0  0
   -2.5629   -0.0523    0.1799 H   0  0  0  0  0  0
   -3.2711    2.5560   -1.0117 H   0  0  0  0  0  0
   -4.3027    1.1834   -0.7092 H   0  0  0  0  0  0
    1.2433    4.3333    5.4769 H   0  0  0  0  0  0
   -0.7065    6.5309    2.3000 H   0  0  0  0  0  0
    1.5509    5.9792    3.4276 H   0  0  0  0  0  0
   -3.7931    5.4881    4.2555 H   0  0  0  0  0  0
   -3.3860    6.2094    2.7329 H   0  0  0  0  0  0
    2.9477   -0.3993    0.2022 H   0  0  0  0  0  0
    0.9628   -0.4304    2.7783 H   0  0  0  0  0  0
    0.8369    2.6166    2.7122 H   0  0  0  0  0  0
    0.7753    1.6363    4.1737 H   0  0  0  0  0  0
   -0.5099    1.5188    2.9960 H   0  0  0  0  0  0
    0.6654   -0.5610   -1.7997 H   0  0  0  0  0  0
    2.3313   -1.0637   -2.0562 H   0  0  0  0  0  0
    1.9574    0.6346   -1.8066 H   0  0  0  0  0  0
    0.5086   -2.2438    0.3083 H   0  0  0  0  0  0
    1.8093   -2.1867    1.4945 H   0  0  0  0  0  0
    2.1406   -2.7250   -0.1387 H   0  0  0  0  0  0
    3.3048    1.4843    2.3287 H   0  0  0  0  0  0
    3.3933   -0.2747    2.4101 H   0  0  0  0  0  0
    2.9723    0.6396    3.8368 H   0  0  0  0  0  0
  1  2  1  0  0  0
  1 10  1  0  0  0
  1 11  2  0  0  0
  2  6  1  0  0  0
  2 14  2  0  0  0
  3  9  1  0  0  0
  3  4  1  0  0  0
  3 13  2  0  0  0
  4  5  1  0  0  0
  5 18  1  0  0  0
  5 19  1  0  0  0
  5 24  1  0  0  0
  6 17  1  0  0  0
  6 25  1  0  0  0
  7  8  1  0  0  0
  7 12  1  0  0  0
  8 17  1  0  0  0
  8 15  2  0  0  0
  9 10  1  0  0  0
  9 26  1  0  0  0
 10 27  1  0  0  0
 10 28  1  0  0  0
 12 16  2  0  0  0
 12 29  1  0  0  0
 15 16  1  0  0  0
 15 30  1  0  0  0
 16 31  1  0  0  0
 17 32  1  0  0  0
 17 33  1  0  0  0
 18 21  1  0  0  0
 18 22  1  0  0  0
 18 34  1  0  0  0
 19 20  1  0  0  0
 19 23  1  0  0  0
 19 35  1  0  0  0
 20 36  1  0  0  0
 20 37  1  0  0  0
 20 38  1  0  0  0
 21 39  1  0  0  0
 21 40  1  0  0  0
 21 41  1  0  0  0
 22 42  1  0  0  0
 22 43  1  0  0  0
 22 44  1  0  0  0
 23 45  1  0  0  0
 23 46  1  0  0  0
 23 47  1  0  0  0
M  END
> <chembl_id>
CHEMBL156373

> <chembl_pref_name>
None

> <s_m_source_file>
sdf/inactives_sanitized.sdf

> <i_m_source_file_index>
487

> <i_lp_mmshare_version>
49012

> <i_m_ct_stereo_status>
1

> <i_f3d_flags>
0

> <s_epik_input>
W0NIM11bQ0hdKFtDSDNdKVtDSF0oW0NIXShbQ0gzXSlbQ0gzXSlPQyg9TylbTkhdW0NIMl1DKD1PKUMoPU8pW05IXVtDSDJdYzFzW2NIXVtjSF1bY0hdMQ==

> <s_epik_cmdline>
J2VwaWtfcHl0aG9uJywgJy1waHQnLCAnMC41JywgJy1waCcsICc3LjUnLCAnLW50JywgJy1tYScsICcyMDAnLCAnLWltYWUnLCAnPGluZmlsZS5tYWU+JywgJy1vbWFlJywgJzxvdXRmaWxlLm1hZT4n

> <r_lp_tautomer_probability>
1

> <r_epik_Ionization_Penalty>
  0.0000

> <r_epik_Ionization_Penalty_Charging>
  0.0000

> <r_epik_Ionization_Penalty_Neutral>
  0.0000

> <r_epik_State_Penalty>
 -0.0000

> <r_epik_Charging_Adjusted_Penalty>
0

> <i_epik_Tot_Q>
0

> <i_epik_Tot_abs_Q>
0

> <s_epik_Chemistry_Notes>
This compound has an ester and may undergo hydrolysis at high or low pH.

> <s_lp_Force_Field>
OPLS3e

> <r_lp_Energy>
12.748928

> <b_lp_Chiralities_Consistent>
1

> <s_lp_Variant>
sdf/inactives_sanitized.sdf:487-1

$$$$
sdf/inactives_sanitized.sdf:488
                    3D
 Schrodinger Suite 2020-1.
 33 34  0  0  1  0            999 V2000
   -4.2043   -4.1024    1.2514 C   0  0  0  0  0  0
   -4.6567   -4.6779    0.0591 C   0  0  0  0  0  0
   -4.2915   -4.1319   -1.1697 C   0  0  0  0  0  0
   -3.4720   -3.0042   -1.2244 C   0  0  0  0  0  0
   -3.0117   -2.4098   -0.0384 C   0  0  0  0  0  0
   -3.3794   -2.9731    1.1888 C   0  0  0  0  0  0
   -2.1263   -1.2232   -0.0569 C   0  0  0  0  0  0
   -0.7312   -1.3412   -0.0280 C   0  0  0  0  0  0
    0.0096   -0.1531   -0.0633 C   0  0  0  0  0  0
   -0.5824    1.0721   -0.1152 N   0  0  0  0  0  0
   -1.9399    1.0744   -0.1350 C   0  0  0  0  0  0
   -2.7506   -0.0144   -0.1097 N   0  0  0  0  0  0
    1.5315   -0.1684   -0.0529 C   0  0  0  0  0  0
    2.1506    0.3127   -1.3795 C   0  0  0  0  0  0
    3.6846    0.2707   -1.3719 C   0  0  0  0  0  0
   -2.5912    2.3715   -0.1871 C   0  0  0  0  0  0
   -3.1106    3.4050   -0.2283 N   0  0  0  0  0  0
   -4.6029   -4.6915    2.6036 C   0  0  0  0  0  0
   -5.7515   -5.3666    2.5283 F   0  0  0  0  0  0
   -3.6480   -5.5274    3.0097 F   0  0  0  0  0  0
   -4.7481   -3.7339    3.5216 F   0  0  0  0  0  0
   -3.0404   -2.3681   -2.7757 Cl  0  0  0  0  0  0
   -5.2899   -5.5532    0.0768 H   0  0  0  0  0  0
   -4.6459   -4.5886   -2.0823 H   0  0  0  0  0  0
   -3.0194   -2.5242    2.1041 H   0  0  0  0  0  0
   -0.2505   -2.3083    0.0102 H   0  0  0  0  0  0
    1.8791    0.4555    0.7725 H   0  0  0  0  0  0
    1.8818   -1.1779    0.1695 H   0  0  0  0  0  0
    1.7814   -0.3033   -2.2012 H   0  0  0  0  0  0
    1.8260    1.3325   -1.5918 H   0  0  0  0  0  0
    4.0876    0.6125   -2.3257 H   0  0  0  0  0  0
    4.0532   -0.7416   -1.2017 H   0  0  0  0  0  0
    4.0936    0.9126   -0.5909 H   0  0  0  0  0  0
  1  6  2  0  0  0
  1  2  1  0  0  0
  1 18  1  0  0  0
  2  3  2  0  0  0
  2 23  1  0  0  0
  3  4  1  0  0  0
  3 24  1  0  0  0
  4  5  2  0  0  0
  4 22  1  0  0  0
  5  6  1  0  0  0
  5  7  1  0  0  0
  6 25  1  0  0  0
  7 12  1  0  0  0
  7  8  2  0  0  0
  8  9  1  0  0  0
  8 26  1  0  0  0
  9 13  1  0  0  0
  9 10  2  0  0  0
 10 11  1  0  0  0
 11 12  2  0  0  0
 11 16  1  0  0  0
 13 14  1  0  0  0
 13 27  1  0  0  0
 13 28  1  0  0  0
 14 15  1  0  0  0
 14 29  1  0  0  0
 14 30  1  0  0  0
 15 31  1  0  0  0
 15 32  1  0  0  0
 15 33  1  0  0  0
 16 17  3  0  0  0
 18 19  1  0  0  0
 18 20  1  0  0  0
 18 21  1  0  0  0
M  END
> <chembl_id>
CHEMBL1209376

> <chembl_pref_name>
None

> <s_m_source_file>
sdf/inactives_sanitized.sdf

> <i_m_source_file_index>
488

> <i_lp_mmshare_version>
49012

> <i_m_ct_stereo_status>
1

> <i_f3d_flags>
0

> <s_epik_input>
RkMoRikoRiljMVtjSF1bY0hdYyhDbCljKFtjSF0xKS1jMltjSF1jKG5jKG4yKUMjTilbQ0gyXVtDSDJdW0NIM10=

> <s_epik_cmdline>
J2VwaWtfcHl0aG9uJywgJy1waHQnLCAnMC41JywgJy1waCcsICc3LjUnLCAnLW50JywgJy1tYScsICcyMDAnLCAnLWltYWUnLCAnPGluZmlsZS5tYWU+JywgJy1vbWFlJywgJzxvdXRmaWxlLm1hZT4n

> <r_lp_tautomer_probability>
1

> <r_epik_Ionization_Penalty>
  0.0000

> <r_epik_Ionization_Penalty_Charging>
  0.0000

> <r_epik_Ionization_Penalty_Neutral>
  0.0000

> <r_epik_State_Penalty>
 -0.0000

> <r_epik_Charging_Adjusted_Penalty>
0

> <i_epik_Tot_Q>
0

> <i_epik_Tot_abs_Q>
0

> <s_lp_Force_Field>
OPLS3e

> <r_lp_Energy>
30.459174

> <b_lp_Chiralities_Consistent>
1

> <s_lp_Variant>
sdf/inactives_sanitized.sdf:488-1

$$$$
sdf/inactives_sanitized.sdf:489
                    3D
 Schrodinger Suite 2020-1.
 37 38  0  0  1  0            999 V2000
   -2.2280    1.1034    0.1749 C   0  0  0  0  0  0
   -2.8810   -0.1270   -0.0093 C   0  0  0  0  0  0
   -2.1058   -1.2850   -0.1716 C   0  0  0  0  0  0
   -0.7155   -1.2211   -0.1508 C   0  0  0  0  0  0
   -0.0421   -0.0049    0.0352 C   0  0  0  0  0  0
   -0.8266    1.1475    0.1940 C   0  0  0  0  0  0
    1.4582    0.0649    0.0562 C   0  0  0  0  0  0
    2.1639    1.1506    0.6068 C   0  0  0  0  0  0
    3.5634    1.1063    0.5707 C   0  0  0  0  0  0
    4.2456    0.0594    0.0338 N   0  0  0  0  0  0
    3.4845   -0.9455   -0.4646 C   0  0  0  0  0  0
    2.1287   -0.9982   -0.4801 N   0  0  0  0  0  0
    4.4063    2.2412    1.1348 C   0  0  0  0  0  0
    5.1358    3.0488    0.0444 C   0  0  0  0  0  0
    5.9692    4.2042    0.6144 C   0  0  0  0  0  0
    4.1897   -2.0796   -1.0357 C   0  0  0  0  0  0
    4.7515   -2.9835   -1.4905 N   0  0  0  0  0  0
   -3.0412    2.3915    0.3503 C   0  0  0  0  0  0
   -3.8076    2.5905   -0.7227 F   0  0  0  0  0  0
   -3.8273    2.2853    1.4223 F   0  0  0  0  0  0
   -2.2737    3.4715    0.5109 F   0  0  0  0  0  0
   -4.2653   -0.1290   -0.0221 O   0  0  0  0  0  0
   -4.9663   -1.3523   -0.2180 C   0  0  0  0  0  0
   -2.5638   -2.2515   -0.3160 H   0  0  0  0  0  0
   -0.1641   -2.1414   -0.2770 H   0  0  0  0  0  0
   -0.3429    2.1031    0.3218 H   0  0  0  0  0  0
    1.6616    1.9951    1.0535 H   0  0  0  0  0  0
    3.7714    2.9074    1.7214 H   0  0  0  0  0  0
    5.1274    1.8230    1.8395 H   0  0  0  0  0  0
    5.7894    2.3902   -0.5296 H   0  0  0  0  0  0
    4.4075    3.4496   -0.6622 H   0  0  0  0  0  0
    6.4675    4.7547   -0.1841 H   0  0  0  0  0  0
    6.7395    3.8391    1.2947 H   0  0  0  0  0  0
    5.3445    4.9100    1.1627 H   0  0  0  0  0  0
   -6.0386   -1.1575   -0.2054 H   0  0  0  0  0  0
   -4.7516   -2.0682    0.5767 H   0  0  0  0  0  0
   -4.7249   -1.8021   -1.1824 H   0  0  0  0  0  0
  1  6  2  0  0  0
  1  2  1  0  0  0
  1 18  1  0  0  0
  2  3  2  0  0  0
  2 22  1  0  0  0
  3  4  1  0  0  0
  3 24  1  0  0  0
  4  5  2  0  0  0
  4 25  1  0  0  0
  5  6  1  0  0  0
  5  7  1  0  0  0
  6 26  1  0  0  0
  7 12  1  0  0  0
  7  8  2  0  0  0
  8  9  1  0  0  0
  8 27  1  0  0  0
  9 13  1  0  0  0
  9 10  2  0  0  0
 10 11  1  0  0  0
 11 12  2  0  0  0
 11 16  1  0  0  0
 13 14  1  0  0  0
 13 28  1  0  0  0
 13 29  1  0  0  0
 14 15  1  0  0  0
 14 30  1  0  0  0
 14 31  1  0  0  0
 15 32  1  0  0  0
 15 33  1  0  0  0
 15 34  1  0  0  0
 16 17  3  0  0  0
 18 19  1  0  0  0
 18 20  1  0  0  0
 18 21  1  0  0  0
 22 23  1  0  0  0
 23 35  1  0  0  0
 23 36  1  0  0  0
 23 37  1  0  0  0
M  END
> <chembl_id>
CHEMBL1209449

> <chembl_pref_name>
None

> <s_m_source_file>
sdf/inactives_sanitized.sdf

> <i_m_source_file_index>
489

> <i_lp_mmshare_version>
49012

> <i_m_ct_stereo_status>
1

> <i_f3d_flags>
0

> <s_epik_input>
RkMoRikoRiljMWMoT1tDSDNdKVtjSF1bY0hdYyhbY0hdMSktYzJbY0hdYyhuYyhuMilDI04pW0NIMl1bQ0gyXVtDSDNd

> <s_epik_cmdline>
J2VwaWtfcHl0aG9uJywgJy1waHQnLCAnMC41JywgJy1waCcsICc3LjUnLCAnLW50JywgJy1tYScsICcyMDAnLCAnLWltYWUnLCAnPGluZmlsZS5tYWU+JywgJy1vbWFlJywgJzxvdXRmaWxlLm1hZT4n

> <r_lp_tautomer_probability>
1

> <r_epik_Ionization_Penalty>
  0.0000

> <r_epik_Ionization_Penalty_Charging>
  0.0000

> <r_epik_Ionization_Penalty_Neutral>
  0.0000

> <r_epik_State_Penalty>
 -0.0000

> <r_epik_Charging_Adjusted_Penalty>
0

> <i_epik_Tot_Q>
0

> <i_epik_Tot_abs_Q>
0

> <s_lp_Force_Field>
OPLS3e

> <r_lp_Energy>
29.878894

> <b_lp_Chiralities_Consistent>
1

> <s_lp_Variant>
sdf/inactives_sanitized.sdf:489-1

$$$$
sdf/inactives_sanitized.sdf:490
                    3D
 Schrodinger Suite 2020-1.
 53 54  0  0  1  0            999 V2000
   -3.2829    3.0972   -0.4342 C   0  0  0  0  0  0
   -2.2657    2.6763    0.6115 C   0  0  0  0  0  0
   -3.7486    2.5748    0.8996 C   0  0  0  0  0  0
   -1.7923   -4.5147    0.1655 C   0  0  0  0  0  0
   -3.0994   -4.1441   -0.1428 C   0  0  0  0  0  0
   -3.3487   -3.1157   -1.0485 C   0  0  0  0  0  0
   -2.2829   -2.4512   -1.6488 C   0  0  0  0  0  0
   -0.9650   -2.8136   -1.3412 C   0  0  0  0  0  0
   -0.7256   -3.8510   -0.4348 C   0  0  0  0  0  0
    0.2254   -2.0919   -1.9875 C   0  0  2  0  0  0
    0.0929   -0.6317   -1.9152 N   0  0  1  0  0  0
    0.1559   -0.0663   -0.5450 C   0  0  2  0  0  0
   -0.6277    1.2641   -0.5841 C   0  0  0  0  0  0
   -1.5222    1.4392    0.4020 N   0  0  0  0  0  0
   -0.4063    2.1013   -1.4627 O   0  0  0  0  0  0
   -1.4954    3.7508    1.2628 C   0  0  0  0  0  0
   -0.8895    4.5936    1.7744 N   0  0  0  0  0  0
    1.6220    0.1746   -0.1071 C   0  0  0  0  0  0
    0.4490   -2.5237   -3.4591 C   0  0  0  0  0  0
    1.5331   -1.9417   -3.9753 F   0  0  0  0  0  0
    0.6380   -3.8409   -3.5485 F   0  0  0  0  0  0
   -0.5819   -2.2147   -4.2484 F   0  0  0  0  0  0
    1.8319    0.1817    1.7745 S   0  0  0  0  0  0
    3.6828    0.5183    2.0335 C   0  0  0  0  0  0
    1.0591    1.3025    2.3190 O   0  0  0  0  0  0
    1.5587   -1.1788    2.2493 O   0  0  0  0  0  0
   -4.1345   -4.7883    0.4418 F   0  0  0  0  0  0
    4.0886    1.9658    1.6615 C   0  0  0  0  0  0
    5.5667    2.0320    1.2367 C   0  0  0  0  0  0
    3.8022    2.9740    2.7916 C   0  0  0  0  0  0
   -3.4277    2.4734   -1.3172 H   0  0  0  0  0  0
   -3.4050    4.1588   -0.6513 H   0  0  0  0  0  0
   -4.1940    3.2738    1.6080 H   0  0  0  0  0  0
   -4.2172    1.5908    0.9355 H   0  0  0  0  0  0
   -1.6064   -5.3139    0.8679 H   0  0  0  0  0  0
   -4.3645   -2.8338   -1.2845 H   0  0  0  0  0  0
   -2.4816   -1.6527   -2.3490 H   0  0  0  0  0  0
    0.2856   -4.1432   -0.1909 H   0  0  0  0  0  0
    1.1267   -2.3594   -1.4331 H   0  0  0  0  0  0
    0.8497   -0.2573   -2.4704 H   0  0  0  0  0  0
   -0.2944   -0.7608    0.1675 H   0  0  0  0  0  0
   -1.5959    0.7370    1.1239 H   0  0  0  0  0  0
    2.2994   -0.5808   -0.5055 H   0  0  0  0  0  0
    1.9973    1.1332   -0.4672 H   0  0  0  0  0  0
    3.9243    0.2888    3.0716 H   0  0  0  0  0  0
    4.2079   -0.2112    1.4163 H   0  0  0  0  0  0
    3.5080    2.2755    0.7927 H   0  0  0  0  0  0
    6.2292    1.7276    2.0479 H   0  0  0  0  0  0
    5.8488    3.0431    0.9403 H   0  0  0  0  0  0
    5.7639    1.3800    0.3849 H   0  0  0  0  0  0
    4.3667    2.7327    3.6929 H   0  0  0  0  0  0
    2.7483    3.0019    3.0627 H   0  0  0  0  0  0
    4.0779    3.9861    2.4931 H   0  0  0  0  0  0
  1  3  1  0  0  0
  1  2  1  0  0  0
  1 31  1  0  0  0
  1 32  1  0  0  0
  2 14  1  0  0  0
  2 16  1  0  0  0
  2  3  1  0  0  0
  3 33  1  0  0  0
  3 34  1  0  0  0
  4  5  2  0  0  0
  4  9  1  0  0  0
  4 35  1  0  0  0
  5  6  1  0  0  0
  5 27  1  0  0  0
  6  7  2  0  0  0
  6 36  1  0  0  0
  7  8  1  0  0  0
  7 37  1  0  0  0
  8  9  2  0  0  0
  8 10  1  0  0  0
  9 38  1  0  0  0
 10 11  1  0  0  0
 10 19  1  0  0  0
 10 39  1  0  0  0
 11 12  1  0  0  0
 11 40  1  0  0  0
 12 13  1  0  0  0
 12 18  1  0  0  0
 12 41  1  0  0  0
 13 14  1  0  0  0
 13 15  2  0  0  0
 14 42  1  0  0  0
 16 17  3  0  0  0
 18 23  1  0  0  0
 18 43  1  0  0  0
 18 44  1  0  0  0
 19 20  1  0  0  0
 19 21  1  0  0  0
 19 22  1  0  0  0
 23 24  1  0  0  0
 23 25  2  0  0  0
 23 26  2  0  0  0
 24 28  1  0  0  0
 24 45  1  0  0  0
 24 46  1  0  0  0
 28 29  1  0  0  0
 28 30  1  0  0  0
 28 47  1  0  0  0
 29 48  1  0  0  0
 29 49  1  0  0  0
 29 50  1  0  0  0
 30 51  1  0  0  0
 30 52  1  0  0  0
 30 53  1  0  0  0
M  END
> <chembl_id>
CHEMBL399063

> <chembl_pref_name>
None

> <i_m_ct_stereo_status>
1

> <s_m_source_file>
sdf/inactives_sanitized.sdf

> <i_m_source_file_index>
490

> <i_lp_mmshare_version>
49012

> <i_f3d_flags>
0

> <s_epik_input>
W0NIMl0xW0NIMl1DMShDI04pW05IXUMoPU8pW0NASF0oW0NIMl1TKD1PKSg9TylbQ0gyXVtDSF0oW0NIM10pW0NIM10pW05IXVtDQEhdKEMoRikoRilGKWMoW2NIXVtjSF0yKVtjSF1bY0hdYzJG

> <s_epik_cmdline>
J2VwaWtfcHl0aG9uJywgJy1waHQnLCAnMC41JywgJy1waCcsICc3LjUnLCAnLW50JywgJy1tYScsICcyMDAnLCAnLWltYWUnLCAnPGluZmlsZS5tYWU+JywgJy1vbWFlJywgJzxvdXRmaWxlLm1hZT4n

> <r_lp_tautomer_probability>
1

> <r_epik_Ionization_Penalty>
  0.0001

> <r_epik_Ionization_Penalty_Charging>
  0.0000

> <r_epik_Ionization_Penalty_Neutral>
  0.0001

> <r_epik_State_Penalty>
 -0.0000

> <r_epik_Charging_Adjusted_Penalty>
0

> <i_epik_Tot_Q>
0

> <i_epik_Tot_abs_Q>
0

> <s_lp_Force_Field>
OPLS3e

> <r_lp_Energy>
22.410936

> <b_lp_Chiralities_Consistent>
1

> <s_lp_Variant>
sdf/inactives_sanitized.sdf:490-1

$$$$
sdf/inactives_sanitized.sdf:491
                    3D
 Schrodinger Suite 2020-1.
 40 42  0  0  1  0            999 V2000
   -3.4203   -4.6919   -0.7142 C   0  0  0  0  0  0
   -4.7303   -4.6218   -0.2371 C   0  0  0  0  0  0
   -5.2032   -3.4432    0.3320 C   0  0  0  0  0  0
   -4.3712   -2.3285    0.4202 C   0  0  0  0  0  0
   -3.0498   -2.3614   -0.0596 C   0  0  0  0  0  0
   -2.5993   -3.5622   -0.6344 C   0  0  0  0  0  0
   -2.1532   -1.1602    0.0316 C   0  0  0  0  0  0
   -0.7524   -1.2468   -0.0654 C   0  0  0  0  0  0
   -0.0148   -0.0617    0.0490 C   0  0  0  0  0  0
   -0.6044    1.1469    0.2508 N   0  0  0  0  0  0
   -1.9572    1.1345    0.3372 C   0  0  0  0  0  0
   -2.7613    0.0457    0.2402 N   0  0  0  0  0  0
    1.5062   -0.0647   -0.0358 C   0  0  0  0  0  0
    2.2089    0.2563    1.2992 C   0  0  0  0  0  0
    1.9420   -0.7751    2.4070 C   0  0  0  0  0  0
   -2.6109    2.4125    0.5588 C   0  0  0  0  0  0
   -3.1319    3.4309    0.7355 N   0  0  0  0  0  0
   -2.9072   -5.9656   -1.3734 C   0  0  0  0  0  0
   -2.0424   -5.9187   -2.6512 C   0  0  0  0  0  0
   -2.6426   -7.2683   -3.0582 C   0  0  0  0  0  0
   -3.8418   -6.8904   -2.1833 C   0  0  0  0  0  0
   -5.3844   -5.4791   -0.3031 H   0  0  0  0  0  0
   -6.2154   -3.3920    0.7052 H   0  0  0  0  0  0
   -4.7703   -1.4327    0.8732 H   0  0  0  0  0  0
   -1.5999   -3.6320   -1.0357 H   0  0  0  0  0  0
   -0.2442   -2.1884   -0.2073 H   0  0  0  0  0  0
    1.8533   -1.0297   -0.4088 H   0  0  0  0  0  0
    1.8081    0.6628   -0.7912 H   0  0  0  0  0  0
    3.2842    0.3130    1.1253 H   0  0  0  0  0  0
    1.9119    1.2470    1.6464 H   0  0  0  0  0  0
    2.4959   -0.5251    3.3122 H   0  0  0  0  0  0
    2.2466   -1.7756    2.0986 H   0  0  0  0  0  0
    0.8845   -0.8134    2.6702 H   0  0  0  0  0  0
   -2.3909   -6.5736   -0.6253 H   0  0  0  0  0  0
   -2.3099   -5.1061   -3.3306 H   0  0  0  0  0  0
   -0.9641   -5.8959   -2.4896 H   0  0  0  0  0  0
   -2.8521   -7.3930   -4.1211 H   0  0  0  0  0  0
   -2.0821   -8.1303   -2.6908 H   0  0  0  0  0  0
   -4.6210   -6.3550   -2.7310 H   0  0  0  0  0  0
   -4.3068   -7.7005   -1.6203 H   0  0  0  0  0  0
  1  6  2  0  0  0
  1  2  1  0  0  0
  1 18  1  0  0  0
  2  3  2  0  0  0
  2 22  1  0  0  0
  3  4  1  0  0  0
  3 23  1  0  0  0
  4  5  2  0  0  0
  4 24  1  0  0  0
  5  6  1  0  0  0
  5  7  1  0  0  0
  6 25  1  0  0  0
  7 12  1  0  0  0
  7  8  2  0  0  0
  8  9  1  0  0  0
  8 26  1  0  0  0
  9 13  1  0  0  0
  9 10  2  0  0  0
 10 11  1  0  0  0
 11 12  2  0  0  0
 11 16  1  0  0  0
 13 14  1  0  0  0
 13 27  1  0  0  0
 13 28  1  0  0  0
 14 15  1  0  0  0
 14 29  1  0  0  0
 14 30  1  0  0  0
 15 31  1  0  0  0
 15 32  1  0  0  0
 15 33  1  0  0  0
 16 17  3  0  0  0
 18 19  1  0  0  0
 18 21  1  0  0  0
 18 34  1  0  0  0
 19 20  1  0  0  0
 19 35  1  0  0  0
 19 36  1  0  0  0
 20 21  1  0  0  0
 20 37  1  0  0  0
 20 38  1  0  0  0
 21 39  1  0  0  0
 21 40  1  0  0  0
M  END
> <chembl_id>
CHEMBL1209374

> <chembl_pref_name>
None

> <s_m_source_file>
sdf/inactives_sanitized.sdf

> <i_m_source_file_index>
491

> <i_lp_mmshare_version>
49012

> <i_m_ct_stereo_status>
1

> <i_f3d_flags>
0

> <s_epik_input>
W0NIMl0xW0NIMl1bQ0gyXVtDSF0xYzJbY0hdW2NIXVtjSF1jKFtjSF0yKS1jM1tjSF1jKG5jKG4zKUMjTilbQ0gyXVtDSDJdW0NIM10=

> <s_epik_cmdline>
J2VwaWtfcHl0aG9uJywgJy1waHQnLCAnMC41JywgJy1waCcsICc3LjUnLCAnLW50JywgJy1tYScsICcyMDAnLCAnLWltYWUnLCAnPGluZmlsZS5tYWU+JywgJy1vbWFlJywgJzxvdXRmaWxlLm1hZT4n

> <r_lp_tautomer_probability>
1

> <r_epik_Ionization_Penalty>
  0.0000

> <r_epik_Ionization_Penalty_Charging>
  0.0000

> <r_epik_Ionization_Penalty_Neutral>
  0.0000

> <r_epik_State_Penalty>
 -0.0000

> <r_epik_Charging_Adjusted_Penalty>
0

> <i_epik_Tot_Q>
0

> <i_epik_Tot_abs_Q>
0

> <s_lp_Force_Field>
OPLS3e

> <r_lp_Energy>
42.112913

> <b_lp_Chiralities_Consistent>
1

> <s_lp_Variant>
sdf/inactives_sanitized.sdf:491-1

$$$$
sdf/inactives_sanitized.sdf:492
                    3D
 Schrodinger Suite 2020-1.
 47 49  0  0  1  0            999 V2000
    2.5572   -0.5225   -4.4543 C   0  0  0  0  0  0
    3.4695   -0.4191   -3.2449 C   0  0  0  0  0  0
    3.5946    0.5668   -4.3873 C   0  0  0  0  0  0
   -0.3367    1.8739   -3.8425 C   0  0  0  0  0  0
    0.3181    3.0944   -3.9861 C   0  0  0  0  0  0
    0.7345    3.8118   -2.8673 C   0  0  0  0  0  0
    0.4949    3.3038   -1.5933 C   0  0  0  0  0  0
   -0.1556    2.0758   -1.4376 C   0  0  0  0  0  0
   -0.5721    1.3631   -2.5692 C   0  0  0  0  0  0
   -0.4026    1.5304   -0.0247 C   0  0  2  0  0  0
    0.1294    0.1748    0.1700 N   0  0  2  0  0  0
    1.6078    0.0600    0.0835 C   0  0  2  0  0  0
    1.9585   -0.5590   -1.2891 C   0  0  0  0  0  0
    2.9204    0.0690   -1.9844 N   0  0  0  0  0  0
    1.3754   -1.5703   -1.6863 O   0  0  0  0  0  0
    4.4924   -1.4700   -3.1012 C   0  0  0  0  0  0
    5.2954   -2.2954   -2.9884 N   0  0  0  0  0  0
    2.1511   -0.7981    1.2473 C   0  0  0  0  0  0
   -1.8962    1.5857    0.3867 C   0  0  0  0  0  0
   -2.0657    1.2121    1.6563 F   0  0  0  0  0  0
   -2.3771    2.8250    0.2809 F   0  0  0  0  0  0
   -2.6641    0.7945   -0.3652 F   0  0  0  0  0  0
    3.9872   -0.5009    1.5927 S   0  0  0  0  0  0
    4.3071   -1.6138    2.9777 C   0  0  0  0  0  0
    4.7786   -0.9903    0.4586 O   0  0  0  0  0  0
    4.1653    0.8632    2.1017 O   0  0  0  0  0  0
    3.8080   -1.4150    4.1725 N   0  0  0  0  0  0
    4.1842   -2.3572    5.0147 C   0  0  0  0  0  0
    5.0093   -3.3528    4.5000 C   0  0  0  0  0  0
    5.3043   -3.0257    2.8194 S   0  0  0  0  0  0
    2.7069   -1.3427   -5.1571 H   0  0  0  0  0  0
    1.5066   -0.2522   -4.3530 H   0  0  0  0  0  0
    3.2565    1.5936   -4.2419 H   0  0  0  0  0  0
    4.4640    0.5031   -5.0422 H   0  0  0  0  0  0
   -0.6563    1.3234   -4.7150 H   0  0  0  0  0  0
    0.5033    3.4893   -4.9742 H   0  0  0  0  0  0
    1.2394    4.7592   -2.9876 H   0  0  0  0  0  0
    0.8193    3.8657   -0.7293 H   0  0  0  0  0  0
   -1.0737    0.4121   -2.4638 H   0  0  0  0  0  0
    0.1278    2.1707    0.6830 H   0  0  0  0  0  0
   -0.2603   -0.3839   -0.5769 H   0  0  0  0  0  0
    2.0671    1.0479    0.1747 H   0  0  0  0  0  0
    3.3897    0.8571   -1.5622 H   0  0  0  0  0  0
    1.6042   -0.6086    2.1720 H   0  0  0  0  0  0
    2.0455   -1.8654    1.0453 H   0  0  0  0  0  0
    3.8406   -2.3095    6.0375 H   0  0  0  0  0  0
    5.4352   -4.2122    4.9966 H   0  0  0  0  0  0
  1  2  1  0  0  0
  1  3  1  0  0  0
  1 31  1  0  0  0
  1 32  1  0  0  0
  2 14  1  0  0  0
  2 16  1  0  0  0
  2  3  1  0  0  0
  3 33  1  0  0  0
  3 34  1  0  0  0
  4  5  2  0  0  0
  4  9  1  0  0  0
  4 35  1  0  0  0
  5  6  1  0  0  0
  5 36  1  0  0  0
  6  7  2  0  0  0
  6 37  1  0  0  0
  7  8  1  0  0  0
  7 38  1  0  0  0
  8  9  2  0  0  0
  8 10  1  0  0  0
  9 39  1  0  0  0
 10 11  1  0  0  0
 10 19  1  0  0  0
 10 40  1  0  0  0
 11 12  1  0  0  0
 11 41  1  0  0  0
 12 13  1  0  0  0
 12 18  1  0  0  0
 12 42  1  0  0  0
 13 14  1  0  0  0
 13 15  2  0  0  0
 14 43  1  0  0  0
 16 17  3  0  0  0
 18 23  1  0  0  0
 18 44  1  0  0  0
 18 45  1  0  0  0
 19 20  1  0  0  0
 19 21  1  0  0  0
 19 22  1  0  0  0
 23 24  1  0  0  0
 23 25  2  0  0  0
 23 26  2  0  0  0
 24 27  2  0  0  0
 24 30  1  0  0  0
 27 28  1  0  0  0
 28 29  2  0  0  0
 28 46  1  0  0  0
 29 30  1  0  0  0
 29 47  1  0  0  0
M  END
> <chembl_id>
CHEMBL400972

> <chembl_pref_name>
None

> <i_m_ct_stereo_status>
1

> <s_m_source_file>
sdf/inactives_sanitized.sdf

> <i_m_source_file_index>
492

> <i_lp_mmshare_version>
49012

> <i_f3d_flags>
0

> <s_epik_input>
czFbY0hdW2NIXW5jMVMoPU8pKD1PKVtDSDJdW0NAQEhdKEMoPU8pW05IXUMyKEMjTilbQ0gyXVtDSDJdMilbTkhdW0NASF0oQyhGKShGKUYpYzNbY0hdW2NIXVtjSF1bY0hdW2NIXTM=

> <s_epik_cmdline>
J2VwaWtfcHl0aG9uJywgJy1waHQnLCAnMC41JywgJy1waCcsICc3LjUnLCAnLW50JywgJy1tYScsICcyMDAnLCAnLWltYWUnLCAnPGluZmlsZS5tYWU+JywgJy1vbWFlJywgJzxvdXRmaWxlLm1hZT4n

> <r_lp_tautomer_probability>
1

> <r_epik_Ionization_Penalty>
  0.0001

> <r_epik_Ionization_Penalty_Charging>
  0.0000

> <r_epik_Ionization_Penalty_Neutral>
  0.0001

> <r_epik_State_Penalty>
 -0.0000

> <r_epik_Charging_Adjusted_Penalty>
0

> <i_epik_Tot_Q>
0

> <i_epik_Tot_abs_Q>
0

> <s_lp_Force_Field>
OPLS3e

> <r_lp_Energy>
25.429651

> <b_lp_Chiralities_Consistent>
1

> <s_lp_Variant>
sdf/inactives_sanitized.sdf:492-1

$$$$
sdf/inactives_sanitized.sdf:493
                    3D
 Schrodinger Suite 2020-1.
 50 52  0  0  1  0            999 V2000
   -1.9046    5.4752    1.3014 C   0  0  0  0  0  0
   -1.8251    3.9327    1.2627 C   0  0  0  0  0  0
   -1.9652    3.3726   -0.1830 C   0  0  0  0  0  0
   -0.8793    4.1121   -1.0297 C   0  0  0  0  0  0
   -0.9991    5.6480   -0.9096 C   0  0  0  0  0  0
   -0.8870    6.0241    0.4632 O   0  0  0  0  0  0
   -1.6755    1.8377   -0.0880 C   0  0  0  0  0  0
   -2.6083    1.0418    0.0514 O   0  0  0  0  0  0
   -0.3964    1.4129   -0.1301 N   0  0  0  0  0  0
    0.0471    0.0222   -0.0090 C   0  0  1  0  0  0
    1.5728   -0.0881   -0.2084 C   0  0  0  0  0  0
   -0.3941   -0.5872    1.2631 C   0  0  0  0  0  0
   -0.7384   -1.0646    2.2596 N   0  0  0  0  0  0
    3.0036   -4.1701   -0.0795 C   0  0  0  0  0  0
    3.0977   -3.3457    1.0491 C   0  0  0  0  0  0
    2.6425   -2.0309    1.0095 C   0  0  0  0  0  0
    2.0856   -1.5217   -0.1642 C   0  0  0  0  0  0
    1.9873   -2.3314   -1.2960 C   0  0  0  0  0  0
    2.4436   -3.6460   -1.2518 C   0  0  0  0  0  0
    3.4886   -5.5796   -0.0326 C   0  0  0  0  0  0
    4.1965   -6.1272   -1.1100 C   0  0  0  0  0  0
    4.6514   -7.4427   -1.0683 C   0  0  0  0  0  0
    4.4015   -8.2272    0.0580 C   0  0  0  0  0  0
    3.6974   -7.6963    1.1392 C   0  0  0  0  0  0
    3.2450   -6.3804    1.0909 C   0  0  0  0  0  0
   -3.3004    3.6219   -0.7209 N   0  0  0  0  0  0
    4.8771   -9.6020    0.1054 C   0  0  0  0  0  0
    5.2555  -10.6950    0.1431 N   0  0  0  0  0  0
   -2.8867    5.8334    0.9872 H   0  0  0  0  0  0
   -1.7536    5.8346    2.3196 H   0  0  0  0  0  0
   -0.9651    3.5298    1.8025 H   0  0  0  0  0  0
   -2.6741    3.5797    1.8523 H   0  0  0  0  0  0
    0.1396    3.7607   -0.8640 H   0  0  0  0  0  0
   -1.0556    3.8823   -2.0822 H   0  0  0  0  0  0
   -0.2013    6.1331   -1.4724 H   0  0  0  0  0  0
   -1.9403    6.0121   -1.3261 H   0  0  0  0  0  0
    0.3289    2.0980   -0.2830 H   0  0  0  0  0  0
   -0.4360   -0.5528   -0.8018 H   0  0  0  0  0  0
    1.8585    0.3495   -1.1669 H   0  0  0  0  0  0
    2.0956    0.5081    0.5418 H   0  0  0  0  0  0
    3.5291   -3.7207    1.9659 H   0  0  0  0  0  0
    2.7191   -1.4131    1.8925 H   0  0  0  0  0  0
    1.5537   -1.9465   -2.2077 H   0  0  0  0  0  0
    2.3514   -4.2602   -2.1359 H   0  0  0  0  0  0
    4.4040   -5.5313   -1.9868 H   0  0  0  0  0  0
    5.1968   -7.8403   -1.9130 H   0  0  0  0  0  0
    3.4954   -8.2925    2.0185 H   0  0  0  0  0  0
    2.6959   -5.9864    1.9339 H   0  0  0  0  0  0
   -3.3553    3.2427   -1.6553 H   0  0  0  0  0  0
   -3.9718    3.0988   -0.1763 H   0  0  0  0  0  0
  1  2  1  0  0  0
  1  6  1  0  0  0
  1 29  1  0  0  0
  1 30  1  0  0  0
  2  3  1  0  0  0
  2 31  1  0  0  0
  2 32  1  0  0  0
  3  4  1  0  0  0
  3  7  1  0  0  0
  3 26  1  0  0  0
  4  5  1  0  0  0
  4 33  1  0  0  0
  4 34  1  0  0  0
  5  6  1  0  0  0
  5 35  1  0  0  0
  5 36  1  0  0  0
  7  8  2  0  0  0
  7  9  1  0  0  0
  9 10  1  0  0  0
  9 37  1  0  0  0
 10 11  1  0  0  0
 10 12  1  0  0  0
 10 38  1  0  0  0
 11 17  1  0  0  0
 11 39  1  0  0  0
 11 40  1  0  0  0
 12 13  3  0  0  0
 14 15  2  0  0  0
 14 19  1  0  0  0
 14 20  1  0  0  0
 15 16  1  0  0  0
 15 41  1  0  0  0
 16 17  2  0  0  0
 16 42  1  0  0  0
 17 18  1  0  0  0
 18 19  2  0  0  0
 18 43  1  0  0  0
 19 44  1  0  0  0
 20 21  2  0  0  0
 20 25  1  0  0  0
 21 22  1  0  0  0
 21 45  1  0  0  0
 22 23  2  0  0  0
 22 46  1  0  0  0
 23 24  1  0  0  0
 23 27  1  0  0  0
 24 25  2  0  0  0
 24 47  1  0  0  0
 25 48  1  0  0  0
 26 49  1  0  0  0
 26 50  1  0  0  0
 27 28  3  0  0  0
M  END
> <chembl_id>
CHEMBL3261926

> <chembl_pref_name>
None

> <i_m_ct_stereo_status>
1

> <s_m_source_file>
sdf/inactives_sanitized.sdf

> <i_m_source_file_index>
493

> <i_lp_mmshare_version>
49012

> <i_f3d_flags>
0

> <s_epik_input>
W0NIMl0xW0NIMl1PW0NIMl1bQ0gyXUMxKFtOSDJdKUMoPU8pW05IXVtDQEhdKEMjTilbQ0gyXWMoW2NIXVtjSF0yKVtjSF1bY0hdYzItYzNbY0hdW2NIXWMoQyNOKVtjSF1bY0hdMw==

> <s_epik_cmdline>
J2VwaWtfcHl0aG9uJywgJy1waHQnLCAnMC41JywgJy1waCcsICc3LjUnLCAnLW50JywgJy1tYScsICcyMDAnLCAnLWltYWUnLCAnPGluZmlsZS5tYWU+JywgJy1vbWFlJywgJzxvdXRmaWxlLm1hZT4n

> <r_epik_Ionization_Penalty>
  0.2050

> <r_epik_Ionization_Penalty_Charging>
  0.0000

> <r_epik_Ionization_Penalty_Neutral>
  0.2050

> <r_epik_State_Penalty>
  0.1949

> <r_epik_Charging_Adjusted_Penalty>
0.194903483686102

> <i_epik_Tot_Q>
0

> <i_epik_Tot_abs_Q>
0

> <s_lp_Force_Field>
OPLS3e

> <r_lp_Energy>
31.810926

> <b_lp_Chiralities_Consistent>
1

> <s_lp_Variant>
sdf/inactives_sanitized.sdf:493-1

$$$$
sdf/inactives_sanitized.sdf:494
                    3D
 Schrodinger Suite 2020-1.
 49 50  0  0  1  0            999 V2000
   -5.6219   -0.3637   -4.6049 C   0  0  0  0  0  0
   -6.9303   -0.7319   -4.2773 C   0  0  0  0  0  0
   -7.3834   -0.6158   -2.9666 C   0  0  0  0  0  0
   -6.5326   -0.1340   -1.9740 C   0  0  0  0  0  0
   -5.2106    0.2444   -2.2655 C   0  0  0  0  0  0
   -4.7795    0.1223   -3.5972 C   0  0  0  0  0  0
   -5.1103   -0.4858   -6.0397 C   0  0  0  0  0  0
   -5.8200   -1.3662   -6.7480 F   0  0  0  0  0  0
   -5.2015    0.7033   -6.6343 F   0  0  0  0  0  0
   -3.8342   -0.8751   -6.0598 F   0  0  0  0  0  0
   -4.2918    0.7651   -1.1991 C   0  0  0  0  0  0
   -2.8912    0.7562   -1.3311 C   0  0  0  0  0  0
   -2.1316    1.2614   -0.2683 C   0  0  0  0  0  0
   -2.7015    1.7457    0.8679 N   0  0  0  0  0  0
   -4.0560    1.7076    0.9104 C   0  0  0  0  0  0
   -4.8801    1.2413   -0.0615 N   0  0  0  0  0  0
   -4.6882    2.2136    2.1164 C   0  0  0  0  0  0
   -5.1921    2.6165    3.0773 N   0  0  0  0  0  0
   -0.6108    1.2973   -0.3276 C   0  0  0  0  0  0
    0.0570    0.3133    0.6616 C   0  0  0  0  0  0
    1.5930    0.3255    0.6362 C   0  0  0  0  0  0
    2.2111    1.1521   -0.0373 O   0  0  0  0  0  0
    2.1951   -0.6089    1.3943 N   0  0  0  0  0  0
    3.6445   -0.8002    1.5436 C   0  0  0  0  0  0
    4.0137   -2.3013    1.5014 C   0  0  0  0  0  0
    4.1963   -0.1280    2.8255 C   0  0  0  0  0  0
    3.5917   -3.0232    0.2097 C   0  0  0  0  0  0
    3.9817    1.3930    2.9058 C   0  0  0  0  0  0
   -7.6039   -1.1050   -5.0351 H   0  0  0  0  0  0
   -8.3955   -0.9002   -2.7186 H   0  0  0  0  0  0
   -6.9161   -0.0629   -0.9665 H   0  0  0  0  0  0
   -3.7783    0.4200   -3.8701 H   0  0  0  0  0  0
   -2.4011    0.3669   -2.2108 H   0  0  0  0  0  0
   -0.2880    1.0752   -1.3468 H   0  0  0  0  0  0
   -0.2901    2.3209   -0.1238 H   0  0  0  0  0  0
   -0.2658    0.5420    1.6787 H   0  0  0  0  0  0
   -0.2900   -0.7000    0.4525 H   0  0  0  0  0  0
    1.6127   -1.2648    1.8940 H   0  0  0  0  0  0
    4.1633   -0.3428    0.6972 H   0  0  0  0  0  0
    5.0931   -2.4117    1.6170 H   0  0  0  0  0  0
    3.5634   -2.8149    2.3524 H   0  0  0  0  0  0
    3.7444   -0.5902    3.7046 H   0  0  0  0  0  0
    5.2675   -0.3218    2.8998 H   0  0  0  0  0  0
    3.9255   -4.0612    0.2182 H   0  0  0  0  0  0
    4.0241   -2.5443   -0.6694 H   0  0  0  0  0  0
    2.5081   -3.0290    0.0881 H   0  0  0  0  0  0
    4.4570    1.8054    3.7963 H   0  0  0  0  0  0
    2.9231    1.6484    2.9555 H   0  0  0  0  0  0
    4.4086    1.8984    2.0388 H   0  0  0  0  0  0
  1  7  1  0  0  0
  1  6  2  0  0  0
  1  2  1  0  0  0
  2  3  2  0  0  0
  2 29  1  0  0  0
  3  4  1  0  0  0
  3 30  1  0  0  0
  4  5  2  0  0  0
  4 31  1  0  0  0
  5 11  1  0  0  0
  5  6  1  0  0  0
  6 32  1  0  0  0
  7  8  1  0  0  0
  7  9  1  0  0  0
  7 10  1  0  0  0
 11 16  1  0  0  0
 11 12  2  0  0  0
 12 13  1  0  0  0
 12 33  1  0  0  0
 13 14  2  0  0  0
 13 19  1  0  0  0
 14 15  1  0  0  0
 15 16  2  0  0  0
 15 17  1  0  0  0
 17 18  3  0  0  0
 19 20  1  0  0  0
 19 34  1  0  0  0
 19 35  1  0  0  0
 20 21  1  0  0  0
 20 36  1  0  0  0
 20 37  1  0  0  0
 21 22  2  0  0  0
 21 23  1  0  0  0
 23 24  1  0  0  0
 23 38  1  0  0  0
 24 25  1  0  0  0
 24 26  1  0  0  0
 24 39  1  0  0  0
 25 27  1  0  0  0
 25 40  1  0  0  0
 25 41  1  0  0  0
 26 28  1  0  0  0
 26 42  1  0  0  0
 26 43  1  0  0  0
 27 44  1  0  0  0
 27 45  1  0  0  0
 27 46  1  0  0  0
 28 47  1  0  0  0
 28 48  1  0  0  0
 28 49  1  0  0  0
M  END
> <chembl_id>
CHEMBL1271275

> <chembl_pref_name>
None

> <s_m_source_file>
sdf/inactives_sanitized.sdf

> <i_m_source_file_index>
494

> <i_lp_mmshare_version>
49012

> <i_m_ct_stereo_status>
1

> <i_f3d_flags>
0

> <s_epik_input>
RkMoRikoRiljMVtjSF1bY0hdW2NIXWMoW2NIXTEpLWMyW2NIXWMobmMobjIpQyNOKVtDSDJdW0NIMl1DKD1PKVtOSF1bQ0hdKFtDSDJdW0NIM10pW0NIMl1bQ0gzXQ==

> <s_epik_cmdline>
J2VwaWtfcHl0aG9uJywgJy1waHQnLCAnMC41JywgJy1waCcsICc3LjUnLCAnLW50JywgJy1tYScsICcyMDAnLCAnLWltYWUnLCAnPGluZmlsZS5tYWU+JywgJy1vbWFlJywgJzxvdXRmaWxlLm1hZT4n

> <r_lp_tautomer_probability>
1

> <r_epik_Ionization_Penalty>
  0.0000

> <r_epik_Ionization_Penalty_Charging>
  0.0000

> <r_epik_Ionization_Penalty_Neutral>
  0.0000

> <r_epik_State_Penalty>
 -0.0000

> <r_epik_Charging_Adjusted_Penalty>
0

> <i_epik_Tot_Q>
0

> <i_epik_Tot_abs_Q>
0

> <s_lp_Force_Field>
OPLS3e

> <r_lp_Energy>
29.886574

> <b_lp_Chiralities_Consistent>
1

> <s_lp_Variant>
sdf/inactives_sanitized.sdf:494-1

$$$$
sdf/inactives_sanitized.sdf:495
                    3D
 Schrodinger Suite 2020-1.
 62 66  0  0  1  0            999 V2000
   -2.5631   -7.7416   -0.7349 C   0  0  0  0  0  0
   -3.9418   -7.8915   -0.6089 C   0  0  0  0  0  0
   -4.7521   -6.7851   -0.3685 C   0  0  0  0  0  0
   -4.1786   -5.5217   -0.2535 C   0  0  0  0  0  0
   -2.7930   -5.3520   -0.3767 C   0  0  0  0  0  0
   -1.9929   -6.4767   -0.6189 C   0  0  0  0  0  0
   -2.1810   -3.9987   -0.2501 C   0  0  0  0  0  0
   -0.9981   -3.8145    0.4725 C   0  0  0  0  0  0
   -0.4291   -2.5501    0.5961 C   0  0  0  0  0  0
   -1.0263   -1.4303    0.0016 C   0  0  0  0  0  0
   -2.2085   -1.6218   -0.7278 C   0  0  0  0  0  0
   -2.7780   -2.8859   -0.8507 C   0  0  0  0  0  0
   -0.4230   -0.0742    0.1443 C   0  0  0  0  0  0
    1.1110   -0.0072    0.0257 C   0  0  0  0  0  0
   -1.0316    1.0291    0.3860 N   0  0  0  0  0  0
    1.8459    0.1940    1.3952 C   0  0  2  0  0  0
    1.4761    1.5038    2.1396 C   0  0  0  0  0  0
    3.3673   -0.0485    1.3531 C   0  0  0  0  0  0
    4.0444   -0.2569    2.5611 C   0  0  0  0  0  0
    5.4184   -0.4795    2.5716 C   0  0  0  0  0  0
    6.1229   -0.4959    1.3709 C   0  0  0  0  0  0
    5.4647   -0.2901    0.1613 C   0  0  0  0  0  0
    4.0903   -0.0666    0.1512 C   0  0  0  0  0  0
   -2.3276    0.9627    0.7715 N   0  0  0  0  0  0
   -3.0857    2.0325    1.1513 C   0  0  0  0  0  0
   -4.3507    1.7067    1.4938 N   0  0  0  0  0  0
   -2.6110    3.6317    1.2280 S   0  0  0  0  0  0
    0.7166    1.5751    3.2628 C   0  0  0  0  0  0
    1.6545    3.9570    2.1490 O   0  0  0  0  0  0
    1.9833    2.7638    1.5252 C   0  0  0  0  0  0
    0.8666    4.0132    3.2878 C   0  0  0  0  0  0
    0.3625    2.8602    3.9051 C   0  0  0  0  0  0
   -0.4358    2.9992    5.0528 C   0  0  0  0  0  0
   -0.7165    4.2662    5.5668 C   0  0  0  0  0  0
   -0.2054    5.4046    4.9432 C   0  0  0  0  0  0
    0.5873    5.2802    3.8027 C   0  0  0  0  0  0
    2.6690    2.8859    0.5110 O   0  0  0  0  0  0
    0.2382    0.5177    3.8250 O   0  5  0  0  0  0
   -4.7238   -9.6197   -0.7659 Br  0  0  0  0  0  0
   -1.9370   -8.6014   -0.9224 H   0  0  0  0  0  0
   -5.8212   -6.9045   -0.2696 H   0  0  0  0  0  0
   -4.8183   -4.6729   -0.0602 H   0  0  0  0  0  0
   -0.9226   -6.3735   -0.7243 H   0  0  0  0  0  0
   -0.5155   -4.6528    0.9541 H   0  0  0  0  0  0
    0.4784   -2.4561    1.1734 H   0  0  0  0  0  0
   -2.6937   -0.7898   -1.2184 H   0  0  0  0  0  0
   -3.6867   -2.9961   -1.4245 H   0  0  0  0  0  0
    1.4825   -0.9201   -0.4423 H   0  0  0  0  0  0
    1.3831    0.7903   -0.6673 H   0  0  0  0  0  0
    1.5025   -0.6387    2.0096 H   0  0  0  0  0  0
    3.5023   -0.2425    3.4959 H   0  0  0  0  0  0
    5.9351   -0.6369    3.5069 H   0  0  0  0  0  0
    7.1894   -0.6665    1.3778 H   0  0  0  0  0  0
    6.0187   -0.2999   -0.7659 H   0  0  0  0  0  0
    3.6041    0.1028   -0.7973 H   0  0  0  0  0  0
   -2.7125    0.0307    0.8228 H   0  0  0  0  0  0
   -4.6483    0.7424    1.4656 H   0  0  0  0  0  0
   -4.9875    2.4307    1.7935 H   0  0  0  0  0  0
   -0.8453    2.1319    5.5496 H   0  0  0  0  0  0
   -1.3322    4.3646    6.4486 H   0  0  0  0  0  0
   -0.4245    6.3837    5.3428 H   0  0  0  0  0  0
    0.9794    6.1643    3.3213 H   0  0  0  0  0  0
  1  2  2  0  0  0
  1  6  1  0  0  0
  1 40  1  0  0  0
  2  3  1  0  0  0
  2 39  1  0  0  0
  3  4  2  0  0  0
  3 41  1  0  0  0
  4  5  1  0  0  0
  4 42  1  0  0  0
  5  6  2  0  0  0
  5  7  1  0  0  0
  6 43  1  0  0  0
  7  8  2  0  0  0
  7 12  1  0  0  0
  8  9  1  0  0  0
  8 44  1  0  0  0
  9 10  2  0  0  0
  9 45  1  0  0  0
 10 11  1  0  0  0
 10 13  1  0  0  0
 11 12  2  0  0  0
 11 46  1  0  0  0
 12 47  1  0  0  0
 13 14  1  0  0  0
 13 15  2  0  0  0
 14 16  1  0  0  0
 14 48  1  0  0  0
 14 49  1  0  0  0
 15 24  1  0  0  0
 16 17  1  0  0  0
 16 18  1  0  0  0
 16 50  1  0  0  0
 17 28  2  0  0  0
 17 30  1  0  0  0
 18 19  2  0  0  0
 18 23  1  0  0  0
 19 20  1  0  0  0
 19 51  1  0  0  0
 20 21  2  0  0  0
 20 52  1  0  0  0
 21 22  1  0  0  0
 21 53  1  0  0  0
 22 23  2  0  0  0
 22 54  1  0  0  0
 23 55  1  0  0  0
 24 25  1  0  0  0
 24 56  1  0  0  0
 25 26  1  0  0  0
 25 27  2  0  0  0
 26 57  1  0  0  0
 26 58  1  0  0  0
 28 32  1  0  0  0
 28 38  1  0  0  0
 29 31  1  0  0  0
 29 30  1  0  0  0
 30 37  2  0  0  0
 31 32  2  0  0  0
 31 36  1  0  0  0
 32 33  1  0  0  0
 33 34  2  0  0  0
 33 59  1  0  0  0
 34 35  1  0  0  0
 34 60  1  0  0  0
 35 36  2  0  0  0
 35 61  1  0  0  0
 36 62  1  0  0  0
M  CHG  1  38  -1
M  END
> <chembl_id>
CHEMBL2316593

> <chembl_pref_name>
None

> <s_m_source_file>
sdf/inactives_sanitized.sdf

> <i_m_source_file_index>
495

> <i_lp_mmshare_version>
49012

> <i_m_ct_stereo_status>
1

> <i_f3d_flags>
0

> <s_epik_input>
QnJjMVtjSF1bY0hdYyhbY0hdW2NIXTEpLWMyW2NIXVtjSF1jKFtjSF1bY0hdMikvQyg9TlxbTkhdQyg9UylbTkgyXSlbQ0gyXVtDQEBIXShjM1tjSF1bY0hdW2NIXVtjSF1bY0hdMyljKGMobzQpPU8pYyhbT0hdKWMoYzQ1KVtjSF1bY0hdW2NIXVtjSF01

> <s_epik_cmdline>
J2VwaWtfcHl0aG9uJywgJy1waHQnLCAnMC41JywgJy1waCcsICc3LjUnLCAnLW50JywgJy1tYScsICcyMDAnLCAnLWltYWUnLCAnPGluZmlsZS5tYWU+JywgJy1vbWFlJywgJzxvdXRmaWxlLm1hZT4n

> <r_lp_tautomer_probability>
1

> <r_epik_Ionization_Penalty>
  0.0082

> <r_epik_Ionization_Penalty_Charging>
  0.0081

> <r_epik_Ionization_Penalty_Neutral>
  0.0001

> <r_epik_State_Penalty>
 -0.0000

> <r_epik_Charging_Adjusted_Penalty>
0.00811841684362236

> <i_epik_Tot_Q>
-1

> <i_epik_Tot_abs_Q>
1

> <s_epik_Chemistry_Notes>
This compound has an imine and may undergo hydrolysis.

> <s_lp_Force_Field>
OPLS3e

> <r_lp_Energy>
82.414765

> <b_lp_Chiralities_Consistent>
1

> <s_lp_Variant>
sdf/inactives_sanitized.sdf:495-1

$$$$
sdf/inactives_sanitized.sdf:496
                    3D
 Schrodinger Suite 2020-1.
 35 37  0  0  1  0            999 V2000
   -2.2177    0.8808   -0.9621 C   0  0  0  0  0  0
   -2.8299   -0.2558   -0.4406 C   0  0  0  0  0  0
   -2.0939   -1.1841    0.2911 C   0  0  0  0  0  0
   -0.7352   -0.9711    0.5087 C   0  0  0  0  0  0
   -0.1101    0.1795    0.0064 C   0  0  0  0  0  0
   -0.8593    1.0948   -0.7445 C   0  0  0  0  0  0
    1.3713    0.4144    0.2093 C   0  0  0  0  0  0
    2.0211    0.7776   -0.7757 O   0  0  0  0  0  0
    1.9320    0.1940    1.4464 N   0  0  0  0  0  0
    3.0683    1.1114    3.9858 C   0  0  1  0  0  0
    1.6298    1.4376    3.5473 C   0  0  2  0  0  0
    1.0482    0.3290    2.6349 C   0  0  2  0  0  0
    3.9428    0.7157    2.7925 C   0  0  0  0  0  0
    3.3553    0.1739    1.6214 C   0  0  0  0  0  0
    4.1882   -0.4671    0.6814 C   0  0  0  0  0  0
    5.5706   -0.4865    0.8324 C   0  0  0  0  0  0
    6.1489    0.0958    1.9515 C   0  0  0  0  0  0
    5.3389    0.6661    2.9278 C   0  0  0  0  0  0
    0.9787   -0.9524    3.3631 C   0  0  0  0  0  0
    0.9240   -1.9574    3.9337 N   0  0  0  0  0  0
    1.6121    3.1695    2.5415 Br  0  0  0  0  0  0
    3.6176    2.1147    4.8206 O   0  0  0  0  0  0
   -2.7933    1.5923   -1.5356 H   0  0  0  0  0  0
   -3.8832   -0.4225   -0.6117 H   0  0  0  0  0  0
   -2.5733   -2.0692    0.6826 H   0  0  0  0  0  0
   -0.1741   -1.7117    1.0597 H   0  0  0  0  0  0
   -0.3962    1.9798   -1.1579 H   0  0  0  0  0  0
    3.0253    0.2353    4.6343 H   0  0  0  0  0  0
    0.9923    1.5711    4.4228 H   0  0  0  0  0  0
    0.0260    0.6208    2.3965 H   0  0  0  0  0  0
    3.7709   -0.9500   -0.1900 H   0  0  0  0  0  0
    6.1907   -0.9620    0.0869 H   0  0  0  0  0  0
    7.2207    0.0707    2.0826 H   0  0  0  0  0  0
    5.8084    1.0460    3.8233 H   0  0  0  0  0  0
    4.3705    1.7448    5.2873 H   0  0  0  0  0  0
  1  2  2  0  0  0
  1  6  1  0  0  0
  1 23  1  0  0  0
  2  3  1  0  0  0
  2 24  1  0  0  0
  3  4  2  0  0  0
  3 25  1  0  0  0
  4  5  1  0  0  0
  4 26  1  0  0  0
  5  6  2  0  0  0
  5  7  1  0  0  0
  6 27  1  0  0  0
  7  8  2  0  0  0
  7  9  1  0  0  0
  9 14  1  0  0  0
  9 12  1  0  0  0
 10 13  1  0  0  0
 10 11  1  0  0  0
 10 22  1  0  0  0
 10 28  1  0  0  0
 11 12  1  0  0  0
 11 21  1  0  0  0
 11 29  1  0  0  0
 12 19  1  0  0  0
 12 30  1  0  0  0
 13 14  2  0  0  0
 13 18  1  0  0  0
 14 15  1  0  0  0
 15 16  2  0  0  0
 15 31  1  0  0  0
 16 17  1  0  0  0
 16 32  1  0  0  0
 17 18  2  0  0  0
 17 33  1  0  0  0
 18 34  1  0  0  0
 19 20  3  0  0  0
 22 35  1  0  0  0
M  END
> <chembl_id>
CHEMBL2316616

> <chembl_pref_name>
None

> <i_m_ct_stereo_status>
1

> <s_m_source_file>
sdf/inactives_sanitized.sdf

> <i_m_source_file_index>
496

> <i_lp_mmshare_version>
49012

> <i_f3d_flags>
0

> <s_epik_input>
W2NIXTFbY0hdW2NIXVtjSF1bY0hdYzFDKD1PKU4oW0NAQEhdKEMjTilbQ0BIXShCcilbQ0BASF0yW09IXSljKGMyMylbY0hdW2NIXVtjSF1bY0hdMw==

> <s_epik_cmdline>
J2VwaWtfcHl0aG9uJywgJy1waHQnLCAnMC41JywgJy1waCcsICc3LjUnLCAnLW50JywgJy1tYScsICcyMDAnLCAnLWltYWUnLCAnPGluZmlsZS5tYWU+JywgJy1vbWFlJywgJzxvdXRmaWxlLm1hZT4n

> <r_lp_tautomer_probability>
1

> <r_epik_Ionization_Penalty>
  0.0038

> <r_epik_Ionization_Penalty_Charging>
  0.0000

> <r_epik_Ionization_Penalty_Neutral>
  0.0038

> <r_epik_State_Penalty>
 -0.0000

> <r_epik_Charging_Adjusted_Penalty>
0

> <i_epik_Tot_Q>
0

> <i_epik_Tot_abs_Q>
0

> <s_lp_Force_Field>
OPLS3e

> <r_lp_Energy>
46.255339

> <b_lp_Chiralities_Consistent>
1

> <s_lp_Variant>
sdf/inactives_sanitized.sdf:496-1

$$$$
sdf/inactives_sanitized.sdf:497
                    3D
 Schrodinger Suite 2020-1.
 24 24  0  0  1  0            999 V2000
   -0.6399    1.2050   -0.1074 C   0  0  0  0  0  0
   -2.0416    1.2157   -0.1270 C   0  0  0  0  0  0
   -2.7710    0.0362   -0.0066 C   0  0  0  0  0  0
   -2.1064   -1.1773    0.1325 C   0  0  0  0  0  0
   -0.7143   -1.2105    0.1399 C   0  0  0  0  0  0
    0.0362   -0.0334    0.0122 C   0  0  0  0  0  0
    1.8377   -0.2025   -0.0356 S   0  0  0  0  0  0
    2.3378    0.6255   -1.5578 C   0  0  0  0  0  0
    3.1315    1.7107   -1.5256 C   0  0  0  0  0  0
    3.5960    2.4770   -2.7473 C   0  0  0  0  0  0
    2.3789    0.5196    1.1214 O   0  0  0  0  0  0
    2.1485   -1.6262   -0.2105 O   0  0  0  0  0  0
    0.0577    2.5014   -0.2154 N   0  3  0  0  0  0
    0.8934    2.7923    0.6321 O   0  0  0  0  0  0
   -0.2734    3.2508   -1.1292 O   0  5  0  0  0  0
   -2.5738    2.1513   -0.2240 H   0  0  0  0  0  0
   -3.8508    0.0639   -0.0170 H   0  0  0  0  0  0
   -2.6693   -2.0941    0.2294 H   0  0  0  0  0  0
   -0.2260   -2.1684    0.2399 H   0  0  0  0  0  0
    1.9617    0.2018   -2.4771 H   0  0  0  0  0  0
    3.4806    2.0944   -0.5778 H   0  0  0  0  0  0
    4.6853    2.4860   -2.7905 H   0  0  0  0  0  0
    3.2443    3.5076   -2.6955 H   0  0  0  0  0  0
    3.2243    2.0400   -3.6759 H   0  0  0  0  0  0
  1  2  2  0  0  0
  1  6  1  0  0  0
  1 13  1  0  0  0
  2  3  1  0  0  0
  2 16  1  0  0  0
  3  4  2  0  0  0
  3 17  1  0  0  0
  4  5  1  0  0  0
  4 18  1  0  0  0
  5  6  2  0  0  0
  5 19  1  0  0  0
  6  7  1  0  0  0
  7  8  1  0  0  0
  7 11  2  0  0  0
  7 12  2  0  0  0
  8  9  2  0  0  0
  8 20  1  0  0  0
  9 10  1  0  0  0
  9 21  1  0  0  0
 10 22  1  0  0  0
 10 23  1  0  0  0
 10 24  1  0  0  0
 13 14  2  0  0  0
 13 15  1  0  0  0
M  CHG  2  13   1  15  -1
M  END
> <chembl_id>
CHEMBL2316595

> <chembl_pref_name>
None

> <s_m_source_file>
sdf/inactives_sanitized.sdf

> <i_m_source_file_index>
497

> <i_lp_mmshare_version>
49012

> <i_m_ct_stereo_status>
1

> <i_f3d_flags>
0

> <s_epik_input>
Tz1bTitdKFtPLV0pYzFbY0hdW2NIXVtjSF1bY0hdYzFTKD1PKSg9TykvW0NIXT1bQ0hdL1tDSDNd

> <s_epik_cmdline>
J2VwaWtfcHl0aG9uJywgJy1waHQnLCAnMC41JywgJy1waCcsICc3LjUnLCAnLW50JywgJy1tYScsICcyMDAnLCAnLWltYWUnLCAnPGluZmlsZS5tYWU+JywgJy1vbWFlJywgJzxvdXRmaWxlLm1hZT4n

> <r_lp_tautomer_probability>
1

> <r_epik_Ionization_Penalty>
  0.0000

> <r_epik_Ionization_Penalty_Charging>
  0.0000

> <r_epik_Ionization_Penalty_Neutral>
  0.0000

> <r_epik_State_Penalty>
 -0.0000

> <r_epik_Charging_Adjusted_Penalty>
0

> <i_epik_Tot_Q>
0

> <i_epik_Tot_abs_Q>
2

> <s_lp_Force_Field>
OPLS3e

> <r_lp_Energy>
15.793019

> <b_lp_Chiralities_Consistent>
1

> <s_lp_Variant>
sdf/inactives_sanitized.sdf:497-1

$$$$
sdf/inactives_sanitized.sdf:498
                    3D
 Schrodinger Suite 2020-1.
 43 42  0  0  1  0            999 V2000
   -0.5504    4.7678    1.5206 C   0  0  0  0  0  0
   -0.6516    3.4833    0.8772 O   0  0  0  0  0  0
    0.8874    5.3366    1.4280 C   0  0  0  0  0  0
   -1.0257    4.6980    2.9935 C   0  0  0  0  0  0
   -1.5077    5.6738    0.7192 C   0  0  0  0  0  0
    0.0187    2.3603    1.2512 C   0  0  0  0  0  0
   -0.3784    1.3114    0.4270 N   0  0  0  0  0  0
    0.8336    2.2914    2.1730 O   0  0  0  0  0  0
    0.1200   -0.0766    0.5186 C   0  0  2  0  0  0
   -0.3953   -0.8188    1.7710 C   0  0  0  0  0  0
   -1.2205   -0.3400    2.6136 N   0  0  0  0  0  0
    1.6617   -0.1934    0.3556 C   0  0  0  0  0  0
    2.1595   -1.5783   -0.1098 C   0  0  0  0  0  0
    3.6855   -1.6325   -0.2982 C   0  0  0  0  0  0
    4.1809   -3.0081   -0.7652 C   0  0  0  0  0  0
   -1.4922   -1.1910    3.6195 N   0  0  0  0  0  0
   -2.3383   -0.8771    4.6164 C   0  0  0  0  0  0
   -2.9545    0.1838    4.7260 O   0  0  0  0  0  0
   -2.4491   -1.8613    5.5096 N   0  0  0  0  0  0
    0.9304    6.3658    1.7866 H   0  0  0  0  0  0
    1.2486    5.3333    0.3989 H   0  0  0  0  0  0
    1.5984    4.7616    2.0208 H   0  0  0  0  0  0
   -0.3572    4.1028    3.6153 H   0  0  0  0  0  0
   -2.0172    4.2495    3.0684 H   0  0  0  0  0  0
   -1.0810    5.6910    3.4411 H   0  0  0  0  0  0
   -1.5250    6.6902    1.1148 H   0  0  0  0  0  0
   -2.5308    5.2951    0.7439 H   0  0  0  0  0  0
   -1.2147    5.7354   -0.3300 H   0  0  0  0  0  0
   -1.0482    1.5156   -0.3000 H   0  0  0  0  0  0
   -0.3299   -0.5677   -0.3451 H   0  0  0  0  0  0
    0.0132   -1.8253    1.8445 H   0  0  0  0  0  0
    1.9962    0.5474   -0.3731 H   0  0  0  0  0  0
    2.1605    0.0779    1.2881 H   0  0  0  0  0  0
    1.8648   -2.3413    0.6110 H   0  0  0  0  0  0
    1.6707   -1.8404   -1.0493 H   0  0  0  0  0  0
    3.9935   -0.8777   -1.0233 H   0  0  0  0  0  0
    4.1793   -1.3745    0.6397 H   0  0  0  0  0  0
    5.2646   -3.0112   -0.8837 H   0  0  0  0  0  0
    3.7426   -3.2812   -1.7257 H   0  0  0  0  0  0
    3.9249   -3.7868   -0.0459 H   0  0  0  0  0  0
   -1.0146   -2.0794    3.5828 H   0  0  0  0  0  0
   -1.9272   -2.7178    5.3973 H   0  0  0  0  0  0
   -3.0555   -1.7497    6.3090 H   0  0  0  0  0  0
  1  3  1  0  0  0
  1  2  1  0  0  0
  1  4  1  0  0  0
  1  5  1  0  0  0
  2  6  1  0  0  0
  3 20  1  0  0  0
  3 21  1  0  0  0
  3 22  1  0  0  0
  4 23  1  0  0  0
  4 24  1  0  0  0
  4 25  1  0  0  0
  5 26  1  0  0  0
  5 27  1  0  0  0
  5 28  1  0  0  0
  6  7  1  0  0  0
  6  8  2  0  0  0
  7  9  1  0  0  0
  7 29  1  0  0  0
  9 10  1  0  0  0
  9 12  1  0  0  0
  9 30  1  0  0  0
 10 11  2  0  0  0
 10 31  1  0  0  0
 11 16  1  0  0  0
 12 13  1  0  0  0
 12 32  1  0  0  0
 12 33  1  0  0  0
 13 14  1  0  0  0
 13 34  1  0  0  0
 13 35  1  0  0  0
 14 15  1  0  0  0
 14 36  1  0  0  0
 14 37  1  0  0  0
 15 38  1  0  0  0
 15 39  1  0  0  0
 15 40  1  0  0  0
 16 17  1  0  0  0
 16 41  1  0  0  0
 17 18  2  0  0  0
 17 19  1  0  0  0
 19 42  1  0  0  0
 19 43  1  0  0  0
M  END
> <chembl_id>
CHEMBL204123

> <chembl_pref_name>
None

> <i_m_ct_stereo_status>
1

> <s_m_source_file>
sdf/inactives_sanitized.sdf

> <i_m_source_file_index>
498

> <i_lp_mmshare_version>
49012

> <i_f3d_flags>
0

> <s_epik_input>
W0NIM11DKFtDSDNdKShbQ0gzXSlPQyg9TylbTkhdW0NAQEhdKFtDSDJdW0NIMl1bQ0gyXVtDSDNdKS9bQ0hdPU4vW05IXUMoPU8pW05IMl0=

> <s_epik_cmdline>
J2VwaWtfcHl0aG9uJywgJy1waHQnLCAnMC41JywgJy1waCcsICc3LjUnLCAnLW50JywgJy1tYScsICcyMDAnLCAnLWltYWUnLCAnPGluZmlsZS5tYWU+JywgJy1vbWFlJywgJzxvdXRmaWxlLm1hZT4n

> <r_lp_tautomer_probability>
1

> <r_epik_Ionization_Penalty>
  0.0001

> <r_epik_Ionization_Penalty_Charging>
  0.0000

> <r_epik_Ionization_Penalty_Neutral>
  0.0001

> <r_epik_State_Penalty>
 -0.0000

> <r_epik_Charging_Adjusted_Penalty>
0

> <i_epik_Tot_Q>
0

> <i_epik_Tot_abs_Q>
0

> <s_epik_Chemistry_Notes>
This compound has an ester and may undergo hydrolysis at high or low pH. This compound has an imine and may undergo hydrolysis.

> <s_lp_Force_Field>
OPLS3e

> <r_lp_Energy>
13.014579

> <b_lp_Chiralities_Consistent>
1

> <s_lp_Variant>
sdf/inactives_sanitized.sdf:498-1

$$$$
sdf/inactives_sanitized.sdf:499
                    3D
 Schrodinger Suite 2020-1.
 40 41  0  0  1  0            999 V2000
   -0.1069    2.0862    4.5227 C   0  0  0  0  0  0
    0.5562    2.8554    3.5668 C   0  0  0  0  0  0
    0.2926    2.6746    2.2073 C   0  0  0  0  0  0
   -0.6515    1.7156    1.8068 C   0  0  0  0  0  0
   -1.3150    0.9489    2.7678 C   0  0  0  0  0  0
   -1.0413    1.1310    4.1233 C   0  0  0  0  0  0
   -0.9895    1.4088    0.0968 S   0  0  0  0  0  0
   -0.1005   -0.1354   -0.2482 C   0  0  0  0  0  0
    1.4460   -0.0413   -0.1344 C   0  0  1  0  0  0
    2.1514   -1.4133    0.1317 C   0  0  1  0  0  0
    3.6982   -1.2845    0.1970 C   0  0  0  0  0  0
    4.2522   -0.5842   -1.0604 C   0  0  0  0  0  0
    3.5769    0.7773   -1.3111 C   0  0  0  0  0  0
    2.0475    0.6331   -1.3917 C   0  0  0  0  0  0
    1.6729   -2.0875    1.4418 C   0  0  0  0  0  0
    1.3494   -3.2753    1.4345 O   0  0  0  0  0  0
    1.6145   -1.3264    2.5508 N   0  0  0  0  0  0
    1.1962   -1.7997    3.8668 C   0  0  0  0  0  0
    2.1143   -2.8022    4.4350 C   0  0  0  0  0  0
    2.8356   -3.5889    4.8816 N   0  0  0  0  0  0
    1.1609    3.6381    1.0604 Cl  0  0  0  0  0  0
   -1.8483    0.1652    5.3038 Cl  0  0  0  0  0  0
    0.1086    2.2299    5.5714 H   0  0  0  0  0  0
    1.2816    3.5899    3.8843 H   0  0  0  0  0  0
   -2.0336    0.2019    2.4624 H   0  0  0  0  0  0
   -0.5095   -0.8839    0.4294 H   0  0  0  0  0  0
   -0.3814   -0.4670   -1.2485 H   0  0  0  0  0  0
    1.6915    0.6026    0.7115 H   0  0  0  0  0  0
    1.8766   -2.1065   -0.6664 H   0  0  0  0  0  0
    4.0040   -0.6553    1.0358 H   0  0  0  0  0  0
    4.1775   -2.2643    0.2458 H   0  0  0  0  0  0
    5.3303   -0.4487   -0.9641 H   0  0  0  0  0  0
    4.1057   -1.2272   -1.9298 H   0  0  0  0  0  0
    3.8384    1.4717   -0.5111 H   0  0  0  0  0  0
    3.9576    1.2169   -2.2337 H   0  0  0  0  0  0
    1.7802    0.0572   -2.2793 H   0  0  0  0  0  0
    1.5897    1.6113   -1.5460 H   0  0  0  0  0  0
    1.9419   -0.3728    2.4996 H   0  0  0  0  0  0
    1.1607   -0.9525    4.5514 H   0  0  0  0  0  0
    0.1903   -2.2205    3.8245 H   0  0  0  0  0  0
  1  6  2  0  0  0
  1  2  1  0  0  0
  1 23  1  0  0  0
  2  3  2  0  0  0
  2 24  1  0  0  0
  3  4  1  0  0  0
  3 21  1  0  0  0
  4  7  1  0  0  0
  4  5  2  0  0  0
  5  6  1  0  0  0
  5 25  1  0  0  0
  6 22  1  0  0  0
  7  8  1  0  0  0
  8  9  1  0  0  0
  8 26  1  0  0  0
  8 27  1  0  0  0
  9 14  1  0  0  0
  9 10  1  0  0  0
  9 28  1  0  0  0
 10 11  1  0  0  0
 10 15  1  0  0  0
 10 29  1  0  0  0
 11 12  1  0  0  0
 11 30  1  0  0  0
 11 31  1  0  0  0
 12 13  1  0  0  0
 12 32  1  0  0  0
 12 33  1  0  0  0
 13 14  1  0  0  0
 13 34  1  0  0  0
 13 35  1  0  0  0
 14 36  1  0  0  0
 14 37  1  0  0  0
 15 16  2  0  0  0
 15 17  1  0  0  0
 17 18  1  0  0  0
 17 38  1  0  0  0
 18 19  1  0  0  0
 18 39  1  0  0  0
 18 40  1  0  0  0
 19 20  3  0  0  0
M  END
> <chembl_id>
CHEMBL381481

> <chembl_pref_name>
None

> <i_m_ct_stereo_status>
1

> <s_m_source_file>
sdf/inactives_sanitized.sdf

> <i_m_source_file_index>
499

> <i_lp_mmshare_version>
49012

> <i_f3d_flags>
0

> <s_epik_input>
Q2xjMVtjSF1bY0hdYyhDbClbY0hdYzFTW0NIMl1bQ0BIXTJbQ0BASF0oW0NIMl1bQ0gyXVtDSDJdW0NIMl0yKUMoPU8pW05IXVtDSDJdQyNO

> <s_epik_cmdline>
J2VwaWtfcHl0aG9uJywgJy1waHQnLCAnMC41JywgJy1waCcsICc3LjUnLCAnLW50JywgJy1tYScsICcyMDAnLCAnLWltYWUnLCAnPGluZmlsZS5tYWU+JywgJy1vbWFlJywgJzxvdXRmaWxlLm1hZT4n

> <r_lp_tautomer_probability>
1

> <r_epik_Ionization_Penalty>
  0.0000

> <r_epik_Ionization_Penalty_Charging>
  0.0000

> <r_epik_Ionization_Penalty_Neutral>
  0.0000

> <r_epik_State_Penalty>
 -0.0000

> <r_epik_Charging_Adjusted_Penalty>
0

> <i_epik_Tot_Q>
0

> <i_epik_Tot_abs_Q>
0

> <s_lp_Force_Field>
OPLS3e

> <r_lp_Energy>
21.72672

> <b_lp_Chiralities_Consistent>
1

> <s_lp_Variant>
sdf/inactives_sanitized.sdf:499-1

$$$$
sdf/inactives_sanitized.sdf:500
                    3D
 Schrodinger Suite 2020-1.
 25 26  0  0  1  0            999 V2000
   -2.1130    1.1959    0.0224 C   0  0  0  0  0  0
   -2.7896   -0.0266   -0.0269 C   0  0  0  0  0  0
   -2.0774   -1.2216   -0.0720 C   0  0  0  0  0  0
   -0.6840   -1.2042   -0.0654 C   0  0  0  0  0  0
    0.0292    0.0051   -0.0134 C   0  0  0  0  0  0
   -0.7120    1.1977    0.0275 C   0  0  0  0  0  0
   -2.8902    2.5112    0.0671 C   0  0  0  0  0  0
   -3.0797    2.9440   -1.1789 F   0  0  0  0  0  0
   -4.0822    2.3560    0.6465 F   0  0  0  0  0  0
   -2.2230    3.4478    0.7441 F   0  0  0  0  0  0
    1.5282    0.0285   -0.0076 C   0  0  0  0  0  0
    2.2629    1.0894    0.5469 C   0  0  0  0  0  0
    3.6583    1.0405    0.5269 C   0  0  0  0  0  0
    4.3018   -0.0603   -0.0381 C   0  0  0  0  0  0
    3.5146   -1.0853   -0.5657 C   0  0  0  0  0  0
    2.1574   -1.0529   -0.5530 N   0  0  0  0  0  0
    4.1136   -2.2654   -1.1673 C   0  0  0  0  0  0
    4.5915   -3.2044   -1.6461 N   0  0  0  0  0  0
   -3.8695   -0.0567   -0.0359 H   0  0  0  0  0  0
   -2.6053   -2.1631   -0.1121 H   0  0  0  0  0  0
   -0.1610   -2.1490   -0.0959 H   0  0  0  0  0  0
   -0.1984    2.1474    0.0482 H   0  0  0  0  0  0
    1.7734    1.9392    0.9985 H   0  0  0  0  0  0
    4.2360    1.8493    0.9496 H   0  0  0  0  0  0
    5.3815   -0.1091   -0.0588 H   0  0  0  0  0  0
  1  6  2  0  0  0
  1  2  1  0  0  0
  1  7  1  0  0  0
  2  3  2  0  0  0
  2 19  1  0  0  0
  3  4  1  0  0  0
  3 20  1  0  0  0
  4  5  2  0  0  0
  4 21  1  0  0  0
  5 11  1  0  0  0
  5  6  1  0  0  0
  6 22  1  0  0  0
  7  9  1  0  0  0
  7 10  1  0  0  0
  7  8  1  0  0  0
 11 12  2  0  0  0
 11 16  1  0  0  0
 12 13  1  0  0  0
 12 23  1  0  0  0
 13 14  2  0  0  0
 13 24  1  0  0  0
 14 15  1  0  0  0
 14 25  1  0  0  0
 15 16  2  0  0  0
 15 17  1  0  0  0
 17 18  3  0  0  0
M  END
> <chembl_id>
CHEMBL1210691

> <chembl_pref_name>
None

> <s_m_source_file>
sdf/inactives_sanitized.sdf

> <i_m_source_file_index>
500

> <i_lp_mmshare_version>
49012

> <i_m_ct_stereo_status>
1

> <i_f3d_flags>
0

> <s_epik_input>
RkMoRikoRiljMVtjSF1bY0hdW2NIXWMoW2NIXTEpLWMyW2NIXVtjSF1bY0hdYyhuMilDI04=

> <s_epik_cmdline>
J2VwaWtfcHl0aG9uJywgJy1waHQnLCAnMC41JywgJy1waCcsICc3LjUnLCAnLW50JywgJy1tYScsICcyMDAnLCAnLWltYWUnLCAnPGluZmlsZS5tYWU+JywgJy1vbWFlJywgJzxvdXRmaWxlLm1hZT4n

> <r_lp_tautomer_probability>
1

> <r_epik_Ionization_Penalty>
  0.0000

> <r_epik_Ionization_Penalty_Charging>
  0.0000

> <r_epik_Ionization_Penalty_Neutral>
  0.0000

> <r_epik_State_Penalty>
 -0.0000

> <r_epik_Charging_Adjusted_Penalty>
0

> <i_epik_Tot_Q>
0

> <i_epik_Tot_abs_Q>
0

> <s_lp_Force_Field>
OPLS3e

> <r_lp_Energy>
27.920729

> <b_lp_Chiralities_Consistent>
1

> <s_lp_Variant>
sdf/inactives_sanitized.sdf:500-1

$$$$
sdf/inactives_sanitized.sdf:501
                    3D
 Schrodinger Suite 2020-1.
 37 39  0  0  1  0            999 V2000
   -5.1054   -3.5450    0.5056 C   0  0  0  0  0  0
   -4.6247   -4.7263   -0.0594 C   0  0  0  0  0  0
   -3.3357   -4.7718   -0.5829 C   0  0  0  0  0  0
   -2.5218   -3.6405   -0.5354 C   0  0  0  0  0  0
   -2.9732   -2.4404    0.0383 C   0  0  0  0  0  0
   -4.2804   -2.4180    0.5569 C   0  0  0  0  0  0
   -2.0896   -1.2295    0.0888 C   0  0  0  0  0  0
   -0.6870   -1.3117    0.0248 C   0  0  0  0  0  0
    0.0406   -0.1167    0.0895 C   0  0  0  0  0  0
   -0.5621    1.0965    0.2122 N   0  0  0  0  0  0
   -1.9164    1.0783    0.2740 C   0  0  0  0  0  0
   -2.7113   -0.0203    0.2219 N   0  0  0  0  0  0
    1.5618   -0.1107    0.0270 C   0  0  0  0  0  0
    2.2232    0.3097    1.3535 C   0  0  0  0  0  0
    3.7562    0.3096    1.2803 C   0  0  0  0  0  0
   -2.5822    2.3619    0.4117 C   0  0  0  0  0  0
   -3.1125    3.3849    0.5216 N   0  0  0  0  0  0
   -6.5043   -3.4941    1.0931 C   0  0  0  0  0  0
   -7.7276   -3.9232    0.3224 C   0  0  0  0  0  0
   -7.5223   -2.4611    0.6794 C   0  0  0  0  0  0
   -5.2490   -5.6074   -0.0971 H   0  0  0  0  0  0
   -2.9663   -5.6843   -1.0274 H   0  0  0  0  0  0
   -1.5333   -3.7112   -0.9632 H   0  0  0  0  0  0
   -4.6676   -1.5182    1.0132 H   0  0  0  0  0  0
   -0.1738   -2.2580   -0.0590 H   0  0  0  0  0  0
    1.9171   -1.1016   -0.2608 H   0  0  0  0  0  0
    1.8723    0.5601   -0.7760 H   0  0  0  0  0  0
    1.8837    1.3067    1.6385 H   0  0  0  0  0  0
    1.9031   -0.3626    2.1512 H   0  0  0  0  0  0
    4.1913    0.6046    2.2355 H   0  0  0  0  0  0
    4.1157    1.0084    0.5239 H   0  0  0  0  0  0
    4.1418   -0.6803    1.0334 H   0  0  0  0  0  0
   -6.5134   -3.7518    2.1529 H   0  0  0  0  0  0
   -7.6084   -4.2381   -0.7148 H   0  0  0  0  0  0
   -8.4938   -4.4960    0.8453 H   0  0  0  0  0  0
   -7.2610   -1.7550   -0.1096 H   0  0  0  0  0  0
   -8.1445   -2.0094    1.4522 H   0  0  0  0  0  0
  1  6  2  0  0  0
  1  2  1  0  0  0
  1 18  1  0  0  0
  2  3  2  0  0  0
  2 21  1  0  0  0
  3  4  1  0  0  0
  3 22  1  0  0  0
  4  5  2  0  0  0
  4 23  1  0  0  0
  5  6  1  0  0  0
  5  7  1  0  0  0
  6 24  1  0  0  0
  7 12  1  0  0  0
  7  8  2  0  0  0
  8  9  1  0  0  0
  8 25  1  0  0  0
  9 10  2  0  0  0
  9 13  1  0  0  0
 10 11  1  0  0  0
 11 12  2  0  0  0
 11 16  1  0  0  0
 13 14  1  0  0  0
 13 26  1  0  0  0
 13 27  1  0  0  0
 14 15  1  0  0  0
 14 28  1  0  0  0
 14 29  1  0  0  0
 15 30  1  0  0  0
 15 31  1  0  0  0
 15 32  1  0  0  0
 16 17  3  0  0  0
 18 19  1  0  0  0
 18 20  1  0  0  0
 18 33  1  0  0  0
 19 20  1  0  0  0
 19 34  1  0  0  0
 19 35  1  0  0  0
 20 36  1  0  0  0
 20 37  1  0  0  0
M  END
> <chembl_id>
CHEMBL1209313

> <chembl_pref_name>
None

> <s_m_source_file>
sdf/inactives_sanitized.sdf

> <i_m_source_file_index>
501

> <i_lp_mmshare_version>
49012

> <i_m_ct_stereo_status>
1

> <i_f3d_flags>
0

> <s_epik_input>
W0NIMl0xW0NIMl1bQ0hdMWMyW2NIXVtjSF1bY0hdYyhbY0hdMiktYzNbY0hdYyhuYyhuMylDI04pW0NIMl1bQ0gyXVtDSDNd

> <s_epik_cmdline>
J2VwaWtfcHl0aG9uJywgJy1waHQnLCAnMC41JywgJy1waCcsICc3LjUnLCAnLW50JywgJy1tYScsICcyMDAnLCAnLWltYWUnLCAnPGluZmlsZS5tYWU+JywgJy1vbWFlJywgJzxvdXRmaWxlLm1hZT4n

> <r_lp_tautomer_probability>
1

> <r_epik_Ionization_Penalty>
  0.0000

> <r_epik_Ionization_Penalty_Charging>
  0.0000

> <r_epik_Ionization_Penalty_Neutral>
  0.0000

> <r_epik_State_Penalty>
 -0.0000

> <r_epik_Charging_Adjusted_Penalty>
0

> <i_epik_Tot_Q>
0

> <i_epik_Tot_abs_Q>
0

> <s_lp_Force_Field>
OPLS3e

> <r_lp_Energy>
34.962076

> <b_lp_Chiralities_Consistent>
1

> <s_lp_Variant>
sdf/inactives_sanitized.sdf:501-1

$$$$
sdf/inactives_sanitized.sdf:502
                    3D
 Schrodinger Suite 2020-1.
 48 50  0  0  1  0            999 V2000
   -7.0197    1.1405    1.2541 C   0  0  0  0  0  0
   -6.4029    1.6423    0.1019 C   0  0  0  0  0  0
   -5.0329    1.4905   -0.0920 C   0  0  0  0  0  0
   -4.2386    0.8259    0.8545 C   0  0  0  0  0  0
   -4.8610    0.3359    2.0108 C   0  0  0  0  0  0
   -6.2302    0.4878    2.2082 C   0  0  0  0  0  0
   -2.8621    0.6693    0.6765 N   0  0  0  0  0  0
   -2.1260    1.3845   -0.3856 C   0  0  0  0  0  0
   -0.5921    1.4023   -0.1911 C   0  0  0  0  0  0
   -0.0716    0.0419   -0.0625 N   0  0  0  0  0  0
   -0.6889   -0.5579    1.1210 C   0  0  0  0  0  0
   -2.2232   -0.6335    0.9541 C   0  0  0  0  0  0
    1.3873    0.0583    0.0593 C   0  0  0  0  0  0
    2.0426   -1.2985   -0.1257 C   0  0  0  0  0  0
    2.8287   -1.8937    0.7885 C   0  0  0  0  0  0
    3.5297   -3.5227    0.4830 S   0  0  0  0  0  0
    2.6722   -4.5544    1.6709 C   0  0  0  0  0  0
    3.2505   -4.8209    2.9149 C   0  0  0  0  0  0
    2.5744   -5.6182    3.8348 C   0  0  0  0  0  0
    1.3258   -6.1438    3.5076 C   0  0  0  0  0  0
    0.7457   -5.8799    2.2683 C   0  0  0  0  0  0
    1.4198   -5.0831    1.3469 C   0  0  0  0  0  0
    3.1345   -3.9786   -0.8555 O   0  0  0  0  0  0
    4.9466   -3.4819    0.8628 O   0  0  0  0  0  0
   -8.4802    1.2995    1.4612 N   0  3  0  0  0  0
   -8.9816    0.8459    2.4862 O   0  0  0  0  0  0
   -9.1366    1.8789    0.6003 O   0  5  0  0  0  0
   -6.9798    2.1533   -0.6551 H   0  0  0  0  0  0
   -4.6050    1.8884   -1.0000 H   0  0  0  0  0  0
   -4.2898   -0.1573    2.7827 H   0  0  0  0  0  0
   -6.6702    0.0952    3.1135 H   0  0  0  0  0  0
   -2.3401    0.9057   -1.3427 H   0  0  0  0  0  0
   -2.4712    2.4174   -0.4411 H   0  0  0  0  0  0
   -0.1333    1.8871   -1.0540 H   0  0  0  0  0  0
   -0.3287    2.0033    0.6819 H   0  0  0  0  0  0
   -0.3014   -1.5672    1.2666 H   0  0  0  0  0  0
   -0.4337    0.0063    2.0204 H   0  0  0  0  0  0
   -2.4374   -1.3011    0.1176 H   0  0  0  0  0  0
   -2.6371   -1.0998    1.8466 H   0  0  0  0  0  0
    1.7477    0.6486   -0.7850 H   0  0  0  0  0  0
    1.7189    0.5582    0.9723 H   0  0  0  0  0  0
    1.8253   -1.7970   -1.0594 H   0  0  0  0  0  0
    3.0681   -1.4406    1.7391 H   0  0  0  0  0  0
    4.2170   -4.4133    3.1730 H   0  0  0  0  0  0
    3.0157   -5.8282    4.7978 H   0  0  0  0  0  0
    0.8023   -6.7623    4.2217 H   0  0  0  0  0  0
   -0.2225   -6.2913    2.0236 H   0  0  0  0  0  0
    0.9676   -4.8762    0.3877 H   0  0  0  0  0  0
  1  2  2  0  0  0
  1  6  1  0  0  0
  1 25  1  0  0  0
  2  3  1  0  0  0
  2 28  1  0  0  0
  3  4  2  0  0  0
  3 29  1  0  0  0
  4  5  1  0  0  0
  4  7  1  0  0  0
  5  6  2  0  0  0
  5 30  1  0  0  0
  6 31  1  0  0  0
  7  8  1  0  0  0
  7 12  1  0  0  0
  8  9  1  0  0  0
  8 32  1  0  0  0
  8 33  1  0  0  0
  9 10  1  0  0  0
  9 34  1  0  0  0
  9 35  1  0  0  0
 10 11  1  0  0  0
 10 13  1  0  0  0
 11 12  1  0  0  0
 11 36  1  0  0  0
 11 37  1  0  0  0
 12 38  1  0  0  0
 12 39  1  0  0  0
 13 14  1  0  0  0
 13 40  1  0  0  0
 13 41  1  0  0  0
 14 15  2  0  0  0
 14 42  1  0  0  0
 15 16  1  0  0  0
 15 43  1  0  0  0
 16 17  1  0  0  0
 16 23  2  0  0  0
 16 24  2  0  0  0
 17 18  2  0  0  0
 17 22  1  0  0  0
 18 19  1  0  0  0
 18 44  1  0  0  0
 19 20  2  0  0  0
 19 45  1  0  0  0
 20 21  1  0  0  0
 20 46  1  0  0  0
 21 22  2  0  0  0
 21 47  1  0  0  0
 22 48  1  0  0  0
 25 26  2  0  0  0
 25 27  1  0  0  0
M  CHG  2  25   1  27  -1
M  END
> <chembl_id>
CHEMBL2316309

> <chembl_pref_name>
None

> <s_m_source_file>
sdf/inactives_sanitized.sdf

> <i_m_source_file_index>
502

> <i_lp_mmshare_version>
49012

> <i_m_ct_stereo_status>
1

> <i_f3d_flags>
0

> <s_epik_input>
Tz1bTitdKFtPLV0pYzFbY0hdW2NIXWMoW2NIXVtjSF0xKU4yW0NIMl1bQ0gyXU4oW0NIMl1bQ0gyXTIpW0NIMl0vW0NIXT1bQ0hdL1MoPU8pKD1PKWMzW2NIXVtjSF1bY0hdW2NIXVtjSF0z

> <s_epik_cmdline>
J2VwaWtfcHl0aG9uJywgJy1waHQnLCAnMC41JywgJy1waCcsICc3LjUnLCAnLW50JywgJy1tYScsICcyMDAnLCAnLWltYWUnLCAnPGluZmlsZS5tYWU+JywgJy1vbWFlJywgJzxvdXRmaWxlLm1hZT4n

> <r_epik_Ionization_Penalty>
  0.0494

> <r_epik_Ionization_Penalty_Charging>
  0.0000

> <r_epik_Ionization_Penalty_Neutral>
  0.0494

> <r_epik_State_Penalty>
  0.0421

> <r_epik_Charging_Adjusted_Penalty>
0.0421490187296611

> <i_epik_Tot_Q>
0

> <i_epik_Tot_abs_Q>
2

> <s_lp_Force_Field>
OPLS3e

> <r_lp_Energy>
38.006625

> <b_lp_Chiralities_Consistent>
1

> <s_lp_Variant>
sdf/inactives_sanitized.sdf:502-1

$$$$
sdf/inactives_sanitized.sdf:503
                    3D
 Schrodinger Suite 2020-1.
 58 61  0  0  1  0            999 V2000
    3.4895    1.5725   -0.9863 C   0  0  0  0  0  0
    3.7591    2.8584   -1.7881 C   0  0  0  0  0  0
    4.8617    3.2080   -0.7783 C   0  0  0  0  0  0
    4.1826    2.2524    0.2123 C   0  0  0  0  0  0
   -2.1362   -2.3341    2.3142 S   0  0  0  0  0  0
   -2.1916   -1.9036    3.7159 O   0  0  0  0  0  0
   -3.2413   -2.0135    1.4035 O   0  0  0  0  0  0
   -0.5060   -1.7090    1.5619 C   0  0  2  0  0  0
   -0.4850   -0.1673    1.4943 C   0  0  0  0  0  0
    0.0331    0.2035    0.0827 C   0  0  2  0  0  0
   -0.3952   -0.9943   -0.8161 C   0  0  1  0  0  0
   -0.2862   -2.2201    0.1218 C   0  0  0  0  0  0
    1.5768    0.3567    0.0598 C   0  0  0  0  0  0
   -1.8463   -0.8520   -1.3700 C   0  0  0  0  0  0
   -2.5823    0.0267   -0.9126 O   0  0  0  0  0  0
   -2.3096   -1.7782   -2.2538 N   0  0  0  0  0  0
   -3.6710   -1.6740   -2.8077 C   0  0  0  0  0  0
   -3.5183   -1.0732   -4.2257 C   0  0  0  0  0  0
   -2.6329   -1.8716   -5.0148 O   0  0  0  0  0  0
   -1.3274   -2.0093   -4.4502 C   0  0  0  0  0  0
   -1.4214   -2.6460   -3.0450 C   0  0  0  0  0  0
    2.0693    1.2631   -0.8040 N   0  0  0  0  0  0
    2.2934   -0.2639    0.8479 O   0  0  0  0  0  0
    4.2488    0.4139   -1.5068 C   0  0  0  0  0  0
    4.8419   -0.4925   -1.9142 N   0  0  0  0  0  0
   -1.9404   -4.1152    2.3233 C   0  0  0  0  0  0
   -2.5681   -4.8984    1.3508 C   0  0  0  0  0  0
   -2.4017   -6.2806    1.3639 C   0  0  0  0  0  0
   -1.6096   -6.8716    2.3464 C   0  0  0  0  0  0
   -0.9814   -6.0935    3.3168 C   0  0  0  0  0  0
   -1.1469   -4.7112    3.3060 C   0  0  0  0  0  0
    4.1090    2.7109   -2.8109 H   0  0  0  0  0  0
    2.9220    3.5596   -1.7991 H   0  0  0  0  0  0
    5.8542    2.8761   -1.0884 H   0  0  0  0  0  0
    4.9026    4.2531   -0.4699 H   0  0  0  0  0  0
    4.8667    1.6196    0.7791 H   0  0  0  0  0  0
    3.4934    2.7377    0.9066 H   0  0  0  0  0  0
    0.2810   -2.0804    2.2197 H   0  0  0  0  0  0
   -1.4922    0.2395    1.5967 H   0  0  0  0  0  0
    0.1024    0.2768    2.3002 H   0  0  0  0  0  0
   -0.3681    1.1666   -0.2421 H   0  0  0  0  0  0
    0.2417   -1.0627   -1.7003 H   0  0  0  0  0  0
   -0.9495   -3.0434   -0.1454 H   0  0  0  0  0  0
    0.7210   -2.6302    0.0318 H   0  0  0  0  0  0
   -4.0144   -2.7062   -2.8874 H   0  0  0  0  0  0
   -4.3977   -1.1874   -2.1554 H   0  0  0  0  0  0
   -4.4910   -1.0222   -4.7146 H   0  0  0  0  0  0
   -3.1525   -0.0458   -4.1752 H   0  0  0  0  0  0
   -0.7107   -2.6299   -5.1000 H   0  0  0  0  0  0
   -0.8302   -1.0381   -4.4063 H   0  0  0  0  0  0
   -0.4829   -2.9422   -2.5773 H   0  0  0  0  0  0
   -1.9701   -3.5855   -3.1220 H   0  0  0  0  0  0
    1.4298    1.7205   -1.4373 H   0  0  0  0  0  0
   -3.1797   -4.4438    0.5851 H   0  0  0  0  0  0
   -2.8842   -6.8917    0.6156 H   0  0  0  0  0  0
   -1.4808   -7.9438    2.3555 H   0  0  0  0  0  0
   -0.3684   -6.5600    4.0739 H   0  0  0  0  0  0
   -0.6583   -4.1073    4.0568 H   0  0  0  0  0  0
  1  2  1  0  0  0
  1  4  1  0  0  0
  1 22  1  0  0  0
  1 24  1  0  0  0
  2  3  1  0  0  0
  2 32  1  0  0  0
  2 33  1  0  0  0
  3  4  1  0  0  0
  3 34  1  0  0  0
  3 35  1  0  0  0
  4 36  1  0  0  0
  4 37  1  0  0  0
  5  6  2  0  0  0
  5  7  2  0  0  0
  5  8  1  0  0  0
  5 26  1  0  0  0
  8  9  1  0  0  0
  8 12  1  0  0  0
  8 38  1  0  0  0
  9 10  1  0  0  0
  9 39  1  0  0  0
  9 40  1  0  0  0
 10 11  1  0  0  0
 10 13  1  0  0  0
 10 41  1  0  0  0
 11 12  1  0  0  0
 11 14  1  0  0  0
 11 42  1  0  0  0
 12 43  1  0  0  0
 12 44  1  0  0  0
 13 22  1  0  0  0
 13 23  2  0  0  0
 14 15  2  0  0  0
 14 16  1  0  0  0
 16 17  1  0  0  0
 16 21  1  0  0  0
 17 18  1  0  0  0
 17 45  1  0  0  0
 17 46  1  0  0  0
 18 19  1  0  0  0
 18 47  1  0  0  0
 18 48  1  0  0  0
 19 20  1  0  0  0
 20 21  1  0  0  0
 20 49  1  0  0  0
 20 50  1  0  0  0
 21 51  1  0  0  0
 21 52  1  0  0  0
 22 53  1  0  0  0
 24 25  3  0  0  0
 26 27  2  0  0  0
 26 31  1  0  0  0
 27 28  1  0  0  0
 27 54  1  0  0  0
 28 29  2  0  0  0
 28 55  1  0  0  0
 29 30  1  0  0  0
 29 56  1  0  0  0
 30 31  2  0  0  0
 30 57  1  0  0  0
 31 58  1  0  0  0
M  END
> <chembl_id>
CHEMBL3093948

> <chembl_pref_name>
None

> <i_m_ct_stereo_status>
1

> <s_m_source_file>
sdf/inactives_sanitized.sdf

> <i_m_source_file_index>
503

> <i_lp_mmshare_version>
49012

> <i_f3d_flags>
0

> <s_epik_input>
W0NIMl0xW0NIMl1PW0NIMl1bQ0gyXU4xQyg9TylbQ0BIXShbQ0gyXTIpW0NASF0oQyg9TylbTkhdQzMoQyNOKVtDSDJdW0NIMl1bQ0gyXTMpW0NIMl1bQ0BIXTJTKD1PKSg9TyljNFtjSF1bY0hdW2NIXVtjSF1bY0hdNA==

> <s_epik_cmdline>
J2VwaWtfcHl0aG9uJywgJy1waHQnLCAnMC41JywgJy1waCcsICc3LjUnLCAnLW50JywgJy1tYScsICcyMDAnLCAnLWltYWUnLCAnPGluZmlsZS5tYWU+JywgJy1vbWFlJywgJzxvdXRmaWxlLm1hZT4n

> <r_lp_tautomer_probability>
1

> <r_epik_Ionization_Penalty>
  0.0000

> <r_epik_Ionization_Penalty_Charging>
  0.0000

> <r_epik_Ionization_Penalty_Neutral>
  0.0000

> <r_epik_State_Penalty>
 -0.0000

> <r_epik_Charging_Adjusted_Penalty>
0

> <i_epik_Tot_Q>
0

> <i_epik_Tot_abs_Q>
0

> <s_lp_Force_Field>
OPLS3e

> <r_lp_Energy>
31.824373

> <b_lp_Chiralities_Consistent>
1

> <s_lp_Variant>
sdf/inactives_sanitized.sdf:503-1

$$$$
sdf/inactives_sanitized.sdf:504
                    3D
 Schrodinger Suite 2020-1.
 77 79  0  0  1  0            999 V2000
   -0.4920    0.1592   -0.7662 N   0  0  2  0  0  0
   -0.0289    2.2544    0.5371 C   0  0  0  0  0  0
   -0.0370    1.6232    1.7321 N   0  0  0  0  0  0
    5.7481   -2.0747   -0.9105 C   0  0  0  0  0  0
    2.9779   -1.6444   -0.7195 C   0  0  0  0  0  0
   -0.8242    1.6027   -0.6278 C   0  0  2  0  0  0
    5.1859   -0.9332   -1.4948 C   0  0  0  0  0  0
    4.9522   -3.0004   -0.2250 C   0  0  0  0  0  0
    1.4972   -1.4317   -0.5848 C   0  0  0  0  0  0
    0.9226   -0.0947   -1.1105 C   0  0  0  0  0  0
   -0.0605    3.2613    3.6612 C   0  0  0  0  0  0
    3.7995   -0.7347   -1.4003 C   0  0  0  0  0  0
    3.5696   -2.7739   -0.1393 C   0  0  0  0  0  0
    0.6184    2.0619    2.9791 C   0  0  2  0  0  0
   -1.1450    3.9460    3.2368 C   0  0  0  0  0  0
    0.5576    3.3205    0.3455 O   0  0  0  0  0  0
    0.7552   -2.2477   -0.0308 O   0  0  0  0  0  0
    7.1056   -2.2752   -0.9867 O   0  0  0  0  0  0
    6.0498   -0.0625   -2.1354 O   0  0  0  0  0  0
    5.5932   -4.0930    0.3318 O   0  0  0  0  0  0
    2.1833    2.1584    2.8702 C   0  0  2  0  0  0
   -1.7934    5.0908    3.9124 C   0  0  0  0  0  0
   -1.3645   -0.5314   -1.7347 C   0  0  0  0  0  0
   -2.3358    1.8807   -0.3846 C   0  0  0  0  0  0
    2.8195    0.8451    2.3286 C   0  0  0  0  0  0
    2.8609    2.5727    4.1993 C   0  0  0  0  0  0
    7.5173   -3.0223   -2.1231 C   0  0  0  0  0  0
    4.8325   -5.0682    1.0363 C   0  0  0  0  0  0
    5.5387    1.1328   -2.7157 C   0  0  0  0  0  0
   -2.7683    5.8080    3.2099 C   0  0  0  0  0  0
   -1.4629    5.4834    5.2173 C   0  0  0  0  0  0
   -2.8633   -0.3319   -1.4437 C   0  0  0  0  0  0
    4.2791    0.9674    1.8583 C   0  0  0  0  0  0
   -3.2345    1.1533   -1.3913 C   0  0  0  0  0  0
   -2.1001    6.5725    5.8066 C   0  0  0  0  0  0
   -3.4053    6.8975    3.7979 C   0  0  0  0  0  0
   -3.0682    7.2753    5.0946 C   0  0  0  0  0  0
   -0.6024    0.7903    1.8094 H   0  0  0  0  0  0
   -0.5108    2.1317   -1.5314 H   0  0  0  0  0  0
    1.5541    0.6936   -0.7040 H   0  0  0  0  0  0
    1.0605   -0.0415   -2.1916 H   0  0  0  0  0  0
    0.3949    3.5628    4.5899 H   0  0  0  0  0  0
    3.3647    0.1403   -1.8566 H   0  0  0  0  0  0
    2.9453   -3.4787    0.3898 H   0  0  0  0  0  0
    0.4192    1.2399    3.6683 H   0  0  0  0  0  0
   -1.6161    3.6406    2.3147 H   0  0  0  0  0  0
    2.4114    2.9483    2.1535 H   0  0  0  0  0  0
   -1.1327   -0.1745   -2.7401 H   0  0  0  0  0  0
   -1.1425   -1.5991   -1.7359 H   0  0  0  0  0  0
   -2.6254    1.5693    0.6217 H   0  0  0  0  0  0
   -2.5358    2.9529   -0.4302 H   0  0  0  0  0  0
    2.7478    0.0629    3.0856 H   0  0  0  0  0  0
    2.2487    0.4733    1.4816 H   0  0  0  0  0  0
    2.6140    1.8796    5.0043 H   0  0  0  0  0  0
    2.5652    3.5728    4.5143 H   0  0  0  0  0  0
    3.9463    2.6027    4.1133 H   0  0  0  0  0  0
    8.5992   -3.1504   -2.0989 H   0  0  0  0  0  0
    7.2631   -2.5104   -3.0528 H   0  0  0  0  0  0
    7.0649   -4.0155   -2.1370 H   0  0  0  0  0  0
    5.4982   -5.8518    1.3978 H   0  0  0  0  0  0
    4.0896   -5.5388    0.3905 H   0  0  0  0  0  0
    4.3320   -4.6347    1.9035 H   0  0  0  0  0  0
    6.3597    1.6966   -3.1583 H   0  0  0  0  0  0
    5.0667    1.7708   -1.9667 H   0  0  0  0  0  0
    4.8210    0.9183   -3.5088 H   0  0  0  0  0  0
   -3.0369    5.5250    2.2020 H   0  0  0  0  0  0
   -0.7190    4.9526    5.7913 H   0  0  0  0  0  0
   -3.4475   -0.8225   -2.2229 H   0  0  0  0  0  0
   -3.1335   -0.8409   -0.5173 H   0  0  0  0  0  0
    4.6258    0.0236    1.4366 H   0  0  0  0  0  0
    4.9563    1.2187    2.6735 H   0  0  0  0  0  0
    4.3827    1.7285    1.0841 H   0  0  0  0  0  0
   -3.1141    1.5985   -2.3802 H   0  0  0  0  0  0
   -4.2843    1.2743   -1.1211 H   0  0  0  0  0  0
   -1.8447    6.8703    6.8129 H   0  0  0  0  0  0
   -4.1567    7.4471    3.2503 H   0  0  0  0  0  0
   -3.5618    8.1203    5.5516 H   0  0  0  0  0  0
  1  6  1  0  0  0
  1 10  1  0  0  0
  1 23  1  0  0  0
  2  6  1  0  0  0
  2  3  1  0  0  0
  2 16  2  0  0  0
  3 14  1  0  0  0
  3 38  1  0  0  0
  4  8  2  0  0  0
  4 18  1  0  0  0
  4  7  1  0  0  0
  5  9  1  0  0  0
  5 12  1  0  0  0
  5 13  2  0  0  0
  6 24  1  0  0  0
  6 39  1  0  0  0
  7 12  2  0  0  0
  7 19  1  0  0  0
  8 13  1  0  0  0
  8 20  1  0  0  0
  9 10  1  0  0  0
  9 17  2  0  0  0
 10 40  1  0  0  0
 10 41  1  0  0  0
 11 14  1  0  0  0
 11 15  2  0  0  0
 11 42  1  0  0  0
 12 43  1  0  0  0
 13 44  1  0  0  0
 14 21  1  0  0  0
 14 45  1  0  0  0
 15 22  1  0  0  0
 15 46  1  0  0  0
 18 27  1  0  0  0
 19 29  1  0  0  0
 20 28  1  0  0  0
 21 25  1  0  0  0
 21 26  1  0  0  0
 21 47  1  0  0  0
 22 30  2  0  0  0
 22 31  1  0  0  0
 23 32  1  0  0  0
 23 48  1  0  0  0
 23 49  1  0  0  0
 24 34  1  0  0  0
 24 50  1  0  0  0
 24 51  1  0  0  0
 25 33  1  0  0  0
 25 52  1  0  0  0
 25 53  1  0  0  0
 26 54  1  0  0  0
 26 55  1  0  0  0
 26 56  1  0  0  0
 27 57  1  0  0  0
 27 58  1  0  0  0
 27 59  1  0  0  0
 28 60  1  0  0  0
 28 61  1  0  0  0
 28 62  1  0  0  0
 29 63  1  0  0  0
 29 64  1  0  0  0
 29 65  1  0  0  0
 30 36  1  0  0  0
 30 66  1  0  0  0
 31 35  2  0  0  0
 31 67  1  0  0  0
 32 34  1  0  0  0
 32 68  1  0  0  0
 32 69  1  0  0  0
 33 70  1  0  0  0
 33 71  1  0  0  0
 33 72  1  0  0  0
 34 73  1  0  0  0
 34 74  1  0  0  0
 35 37  1  0  0  0
 35 75  1  0  0  0
 36 37  2  0  0  0
 36 76  1  0  0  0
 37 77  1  0  0  0
M  END
> <chembl_id>
CHEMBL319522

> <chembl_pref_name>
None

> <i_m_ct_stereo_status>
1

> <s_m_source_file>
sdf/inactives_sanitized.sdf

> <i_m_source_file_index>
504

> <i_lp_mmshare_version>
49012

> <i_f3d_flags>
0

> <s_epik_input>
W0NIM11PYzFjKE9bQ0gzXSlbY0hdYyhbY0hdYzFPW0NIM10pQyg9TylbQ0gyXU4yW0NAQEhdKFtDSDJdW0NIMl1bQ0gyXVtDSDJdMilDKD1PKVtOSF1bQ0BASF0oW0NAQEhdKFtDSDNdKVtDSDJdW0NIM10pL1tDSF09W0NIXS9jM1tjSF1bY0hdW2NIXVtjSF1bY0hdMw==

> <s_epik_cmdline>
J2VwaWtfcHl0aG9uJywgJy1waHQnLCAnMC41JywgJy1waCcsICc3LjUnLCAnLW50JywgJy1tYScsICcyMDAnLCAnLWltYWUnLCAnPGluZmlsZS5tYWU+JywgJy1vbWFlJywgJzxvdXRmaWxlLm1hZT4n

> <r_lp_tautomer_probability>
0.99990000499975

> <r_epik_Ionization_Penalty>
  0.0320

> <r_epik_Ionization_Penalty_Charging>
  0.0000

> <r_epik_Ionization_Penalty_Neutral>
  0.0320

> <r_epik_State_Penalty>
  0.0264

> <r_epik_Charging_Adjusted_Penalty>
0.0264400689711553

> <i_epik_Tot_Q>
0

> <i_epik_Tot_abs_Q>
0

> <s_lp_Force_Field>
OPLS3e

> <r_lp_Energy>
51.538951

> <b_lp_Chiralities_Consistent>
1

> <s_lp_Variant>
sdf/inactives_sanitized.sdf:504-1

$$$$
sdf/inactives_sanitized.sdf:505
                    3D
 Schrodinger Suite 2020-1.
 70 71  0  0  1  0            999 V2000
   -4.3318    2.8211   -6.0993 C   0  0  0  0  0  0
   -4.2837    4.2142   -6.0745 C   0  0  0  0  0  0
   -3.7796    4.8762   -4.9570 C   0  0  0  0  0  0
   -3.3185    4.1425   -3.8686 C   0  0  0  0  0  0
   -3.3467    2.7399   -3.8757 C   0  0  0  0  0  0
   -3.8695    2.0935   -5.0061 C   0  0  0  0  0  0
   -2.8164    1.9555   -2.7140 C   0  0  0  0  0  0
   -2.2761    0.6742   -2.8965 C   0  0  0  0  0  0
   -1.7675   -0.0489   -1.8223 C   0  0  0  0  0  0
   -1.7727    0.5010   -0.5370 C   0  0  0  0  0  0
   -2.3113    1.7731   -0.3418 C   0  0  0  0  0  0
   -2.8302    2.4884   -1.4168 C   0  0  0  0  0  0
   -4.8457    5.1641   -7.4838 S   0  0  0  0  0  0
   -3.2463    5.5287   -8.4136 C   0  0  0  0  0  0
   -5.6778    4.2851   -8.3132 O   0  0  0  0  0  0
   -5.3857    6.4288   -6.9722 O   0  0  0  0  0  0
   -1.2115   -0.2644    0.6694 C   0  0  2  0  0  0
    0.0114   -1.0208    0.3722 N   0  0  1  0  0  0
   -2.2665   -1.2107    1.2956 C   0  0  0  0  0  0
   -1.7895   -1.8241    2.3807 F   0  0  0  0  0  0
   -3.3511   -0.5363    1.6802 F   0  0  0  0  0  0
   -2.6676   -2.1586    0.4456 F   0  0  0  0  0  0
    1.2432   -0.2220    0.1451 C   0  0  2  0  0  0
    1.5307   -0.2069   -1.3745 C   0  0  0  0  0  0
    2.4595   -0.8106    0.9072 C   0  0  0  0  0  0
    2.3074   -0.8456    2.4476 C   0  0  0  0  0  0
    2.0696    0.5541    3.0542 C   0  0  0  0  0  0
    3.5022   -1.5697    3.1048 C   0  0  0  0  0  0
    1.5401   -1.2614   -2.0150 O   0  0  0  0  0  0
    1.7648    1.0013   -1.9208 N   0  0  0  0  0  0
    2.0858    1.2516   -3.3373 C   0  0  1  0  0  0
    1.8573    2.7504   -3.6754 C   0  0  0  0  0  0
    0.4000    3.2126   -3.5148 C   0  0  0  0  0  0
    0.0942    4.9276   -4.0191 S   0  0  0  0  0  0
   -0.0425    4.7128   -5.8138 C   0  0  0  0  0  0
    3.5642    0.8775   -3.7162 C   0  0  0  0  0  0
    3.8058    0.9539   -4.9421 O   0  0  0  0  0  0
    4.3272    0.5614   -2.7738 O   0  5  0  0  0  0
   -4.7208    2.2973   -6.9602 H   0  0  0  0  0  0
   -3.7309    5.9552   -4.9327 H   0  0  0  0  0  0
   -2.9109    4.6833   -3.0275 H   0  0  0  0  0  0
   -3.9251    1.0159   -5.0500 H   0  0  0  0  0  0
   -2.2288    0.2265   -3.8779 H   0  0  0  0  0  0
   -1.3598   -1.0345   -1.9949 H   0  0  0  0  0  0
   -2.3327    2.2110    0.6455 H   0  0  0  0  0  0
   -3.2472    3.4657   -1.2246 H   0  0  0  0  0  0
   -3.4813    6.1138   -9.3021 H   0  0  0  0  0  0
   -2.7799    4.5864   -8.7003 H   0  0  0  0  0  0
   -2.5786    6.0925   -7.7627 H   0  0  0  0  0  0
   -0.9448    0.4639    1.4378 H   0  0  0  0  0  0
    0.1480   -1.7439    1.0641 H   0  0  0  0  0  0
    1.1145    0.8113    0.4752 H   0  0  0  0  0  0
    2.6443   -1.8297    0.5602 H   0  0  0  0  0  0
    3.3559   -0.2337    0.6695 H   0  0  0  0  0  0
    1.4262   -1.4467    2.6753 H   0  0  0  0  0  0
    2.3660    1.3509    2.3717 H   0  0  0  0  0  0
    2.6182    0.7090    3.9832 H   0  0  0  0  0  0
    1.0131    0.6966    3.2837 H   0  0  0  0  0  0
    4.1073   -0.9074    3.7241 H   0  0  0  0  0  0
    4.1745   -2.0045    2.3644 H   0  0  0  0  0  0
    3.1581   -2.3848    3.7419 H   0  0  0  0  0  0
    1.7773    1.8138   -1.3223 H   0  0  0  0  0  0
    1.4298    0.6426   -3.9641 H   0  0  0  0  0  0
    2.4873    3.3724   -3.0365 H   0  0  0  0  0  0
    2.1737    2.9675   -4.6969 H   0  0  0  0  0  0
   -0.2607    2.5613   -4.0865 H   0  0  0  0  0  0
    0.0979    3.1199   -2.4716 H   0  0  0  0  0  0
   -0.2512    5.6702   -6.2906 H   0  0  0  0  0  0
   -0.8538    4.0252   -6.0541 H   0  0  0  0  0  0
    0.8845    4.3161   -6.2271 H   0  0  0  0  0  0
  1  6  2  0  0  0
  1  2  1  0  0  0
  1 39  1  0  0  0
  2  3  2  0  0  0
  2 13  1  0  0  0
  3  4  1  0  0  0
  3 40  1  0  0  0
  4  5  2  0  0  0
  4 41  1  0  0  0
  5  6  1  0  0  0
  5  7  1  0  0  0
  6 42  1  0  0  0
  7 12  1  0  0  0
  7  8  2  0  0  0
  8  9  1  0  0  0
  8 43  1  0  0  0
  9 10  2  0  0  0
  9 44  1  0  0  0
 10 11  1  0  0  0
 10 17  1  0  0  0
 11 12  2  0  0  0
 11 45  1  0  0  0
 12 46  1  0  0  0
 13 14  1  0  0  0
 13 15  2  0  0  0
 13 16  2  0  0  0
 14 47  1  0  0  0
 14 48  1  0  0  0
 14 49  1  0  0  0
 17 19  1  0  0  0
 17 18  1  0  0  0
 17 50  1  0  0  0
 18 23  1  0  0  0
 18 51  1  0  0  0
 19 20  1  0  0  0
 19 21  1  0  0  0
 19 22  1  0  0  0
 23 24  1  0  0  0
 23 25  1  0  0  0
 23 52  1  0  0  0
 24 29  2  0  0  0
 24 30  1  0  0  0
 25 26  1  0  0  0
 25 53  1  0  0  0
 25 54  1  0  0  0
 26 27  1  0  0  0
 26 28  1  0  0  0
 26 55  1  0  0  0
 27 56  1  0  0  0
 27 57  1  0  0  0
 27 58  1  0  0  0
 28 59  1  0  0  0
 28 60  1  0  0  0
 28 61  1  0  0  0
 30 31  1  0  0  0
 30 62  1  0  0  0
 31 32  1  0  0  0
 31 36  1  0  0  0
 31 63  1  0  0  0
 32 33  1  0  0  0
 32 64  1  0  0  0
 32 65  1  0  0  0
 33 34  1  0  0  0
 33 66  1  0  0  0
 33 67  1  0  0  0
 34 35  1  0  0  0
 35 68  1  0  0  0
 35 69  1  0  0  0
 35 70  1  0  0  0
 36 37  2  0  0  0
 36 38  1  0  0  0
M  CHG  1  38  -1
M  END
> <chembl_id>
CHEMBL251100

> <chembl_pref_name>
None

> <i_m_ct_stereo_status>
1

> <s_m_source_file>
sdf/inactives_sanitized.sdf

> <i_m_source_file_index>
505

> <i_lp_mmshare_version>
49012

> <i_f3d_flags>
0

> <s_epik_input>
W0NIM11TKD1PKSg9TyljMVtjSF1bY0hdYyhbY0hdW2NIXTEpLWMyW2NIXVtjSF1jKFtjSF1bY0hdMilbQ0BASF0oQyhGKShGKUYpW05IXVtDQEBIXShbQ0gyXVtDSF0oW0NIM10pW0NIM10pQyg9TylbTkhdW0NASF0oQyg9TylbT0hdKVtDSDJdW0NIMl1TW0NIM10=

> <s_epik_cmdline>
J2VwaWtfcHl0aG9uJywgJy1waHQnLCAnMC41JywgJy1waCcsICc3LjUnLCAnLW50JywgJy1tYScsICcyMDAnLCAnLWltYWUnLCAnPGluZmlsZS5tYWU+JywgJy1vbWFlJywgJzxvdXRmaWxlLm1hZT4n

> <r_lp_tautomer_probability>
1

> <r_epik_Ionization_Penalty>
  0.0005

> <r_epik_Ionization_Penalty_Charging>
  0.0000

> <r_epik_Ionization_Penalty_Neutral>
  0.0005

> <r_epik_State_Penalty>
 -0.0000

> <r_epik_Charging_Adjusted_Penalty>
3.90565821992317e-05

> <i_epik_Tot_Q>
-1

> <i_epik_Tot_abs_Q>
1

> <s_lp_Force_Field>
OPLS3e

> <r_lp_Energy>
39.990395

> <b_lp_Chiralities_Consistent>
1

> <s_lp_Variant>
sdf/inactives_sanitized.sdf:505-1

$$$$
sdf/inactives_sanitized.sdf:506
                    3D
 Schrodinger Suite 2020-1.
 80 82  0  0  1  0            999 V2000
   -2.6938    0.0843    3.5425 N   0  0  0  0  0  0
   -2.4083   -0.8645    2.6803 C   0  0  0  0  0  0
    1.5578   -2.3380   -1.3974 C   0  0  0  0  0  0
    2.2280   -0.9624   -0.9450 C   0  0  0  0  0  0
   -2.8303   -0.5628    1.4258 O   0  0  0  0  0  0
   -3.4045    0.6545    1.5890 C   0  0  0  0  0  0
   -3.3423    1.0851    2.8237 N   0  0  0  0  0  0
   -0.5659    1.2902   -0.1079 C   0  0  0  0  0  0
    2.2445   -2.9423   -2.3870 N   0  0  0  0  0  0
   -3.9316    1.3726    0.3645 C   0  0  0  0  0  0
    0.1803    0.2013   -0.5359 N   0  0  0  0  0  0
   -2.8310    2.1639   -0.3957 C   0  0  1  0  0  0
    1.4866   -0.0947    0.0730 C   0  0  1  0  0  0
   -1.7640    1.2656   -0.7370 O   0  0  0  0  0  0
   -3.3104    2.9334   -1.6777 C   0  0  0  0  0  0
    1.8950   -4.2248   -3.0113 C   0  0  1  0  0  0
    3.3288   -0.6335   -1.3952 O   0  0  0  0  0  0
    0.5191   -2.7580   -0.8846 O   0  0  0  0  0  0
   -0.2217    2.1328    0.7243 O   0  0  0  0  0  0
   -1.6984   -2.1569    2.9165 C   0  0  0  0  0  0
    0.5037   -4.2788   -3.6590 C   0  0  0  0  0  0
    1.3857   -0.7542    1.4783 C   0  0  0  0  0  0
   -4.4809    3.9167   -1.3621 C   0  0  0  0  0  0
   -2.1203    3.7401   -2.2620 C   0  0  0  0  0  0
   -3.7984    1.9465   -2.7711 C   0  0  0  0  0  0
    2.9795   -4.6356   -4.0214 C   0  0  0  0  0  0
   -1.1935   -2.4631    4.1855 C   0  0  0  0  0  0
   -1.5262   -3.0667    1.8664 C   0  0  0  0  0  0
   -0.0273   -3.1665   -4.3252 C   0  0  0  0  0  0
   -0.2556   -5.4490   -3.5549 C   0  0  0  0  0  0
    2.7361   -1.0053    2.1801 C   0  0  0  0  0  0
    2.5683   -1.6617    3.5612 C   0  0  0  0  0  0
   -4.2219    4.9614   -0.2595 C   0  0  0  0  0  0
    3.9033   -1.9080    4.2760 C   0  0  0  0  0  0
   -1.5294   -5.5097   -4.1139 C   0  0  0  0  0  0
   -0.5231   -3.6642    4.4014 C   0  0  0  0  0  0
   -0.8492   -4.2642    2.0803 C   0  0  0  0  0  0
   -1.3013   -3.2268   -4.8833 C   0  0  0  0  0  0
   -0.3516   -4.5581    3.3473 C   0  0  0  0  0  0
   -2.0466   -4.3983   -4.7751 C   0  0  0  0  0  0
    3.1022   -2.5125   -2.7029 H   0  0  0  0  0  0
   -4.4126    0.6533   -0.2979 H   0  0  0  0  0  0
   -4.7206    2.0575    0.6731 H   0  0  0  0  0  0
   -0.2992   -0.5473   -1.0152 H   0  0  0  0  0  0
   -2.4606    2.9206    0.2983 H   0  0  0  0  0  0
    2.0408    0.8428    0.1698 H   0  0  0  0  0  0
    1.9204   -4.9627   -2.2057 H   0  0  0  0  0  0
    0.7798   -0.1128    2.1206 H   0  0  0  0  0  0
    0.8326   -1.6898    1.4183 H   0  0  0  0  0  0
   -4.7483    4.4565   -2.2723 H   0  0  0  0  0  0
   -5.3805    3.3563   -1.1041 H   0  0  0  0  0  0
   -2.4325    4.3801   -3.0885 H   0  0  0  0  0  0
   -1.3373    3.0853   -2.6468 H   0  0  0  0  0  0
   -1.6551    4.3796   -1.5113 H   0  0  0  0  0  0
   -4.0744    2.4714   -3.6869 H   0  0  0  0  0  0
   -4.6764    1.3838   -2.4538 H   0  0  0  0  0  0
   -3.0285    1.2221   -3.0403 H   0  0  0  0  0  0
    2.7971   -5.6376   -4.4117 H   0  0  0  0  0  0
    3.9688   -4.6431   -3.5616 H   0  0  0  0  0  0
    3.0159   -3.9504   -4.8696 H   0  0  0  0  0  0
   -1.3151   -1.7718    5.0071 H   0  0  0  0  0  0
   -1.9034   -2.8480    0.8778 H   0  0  0  0  0  0
    0.5448   -2.2542   -4.4120 H   0  0  0  0  0  0
    0.1389   -6.3129   -3.0398 H   0  0  0  0  0  0
    3.3643   -1.6465    1.5604 H   0  0  0  0  0  0
    3.2686   -0.0593    2.2894 H   0  0  0  0  0  0
    1.9338   -1.0372    4.1918 H   0  0  0  0  0  0
    2.0463   -2.6125    3.4493 H   0  0  0  0  0  0
   -5.0903    5.6092   -0.1374 H   0  0  0  0  0  0
   -3.3734    5.6021   -0.4978 H   0  0  0  0  0  0
   -4.0318    4.4951    0.7069 H   0  0  0  0  0  0
    3.7432   -2.3813    5.2450 H   0  0  0  0  0  0
    4.4388   -0.9739    4.4483 H   0  0  0  0  0  0
    4.5499   -2.5630    3.6911 H   0  0  0  0  0  0
   -2.1145   -6.4139   -4.0334 H   0  0  0  0  0  0
   -0.1332   -3.8988    5.3810 H   0  0  0  0  0  0
   -0.7091   -4.9598    1.2659 H   0  0  0  0  0  0
   -1.7099   -2.3691   -5.3969 H   0  0  0  0  0  0
    0.1733   -5.4874    3.5130 H   0  0  0  0  0  0
   -3.0352   -4.4452   -5.2074 H   0  0  0  0  0  0
  1  2  2  0  0  0
  1  7  1  0  0  0
  2  5  1  0  0  0
  2 20  1  0  0  0
  3  4  1  0  0  0
  3  9  1  0  0  0
  3 18  2  0  0  0
  4 13  1  0  0  0
  4 17  2  0  0  0
  5  6  1  0  0  0
  6  7  2  0  0  0
  6 10  1  0  0  0
  8 14  1  0  0  0
  8 11  1  0  0  0
  8 19  2  0  0  0
  9 16  1  0  0  0
  9 41  1  0  0  0
 10 12  1  0  0  0
 10 42  1  0  0  0
 10 43  1  0  0  0
 11 13  1  0  0  0
 11 44  1  0  0  0
 12 14  1  0  0  0
 12 15  1  0  0  0
 12 45  1  0  0  0
 13 22  1  0  0  0
 13 46  1  0  0  0
 15 23  1  0  0  0
 15 24  1  0  0  0
 15 25  1  0  0  0
 16 21  1  0  0  0
 16 26  1  0  0  0
 16 47  1  0  0  0
 20 27  2  0  0  0
 20 28  1  0  0  0
 21 29  2  0  0  0
 21 30  1  0  0  0
 22 31  1  0  0  0
 22 48  1  0  0  0
 22 49  1  0  0  0
 23 33  1  0  0  0
 23 50  1  0  0  0
 23 51  1  0  0  0
 24 52  1  0  0  0
 24 53  1  0  0  0
 24 54  1  0  0  0
 25 55  1  0  0  0
 25 56  1  0  0  0
 25 57  1  0  0  0
 26 58  1  0  0  0
 26 59  1  0  0  0
 26 60  1  0  0  0
 27 36  1  0  0  0
 27 61  1  0  0  0
 28 37  2  0  0  0
 28 62  1  0  0  0
 29 38  1  0  0  0
 29 63  1  0  0  0
 30 35  2  0  0  0
 30 64  1  0  0  0
 31 32  1  0  0  0
 31 65  1  0  0  0
 31 66  1  0  0  0
 32 34  1  0  0  0
 32 67  1  0  0  0
 32 68  1  0  0  0
 33 69  1  0  0  0
 33 70  1  0  0  0
 33 71  1  0  0  0
 34 72  1  0  0  0
 34 73  1  0  0  0
 34 74  1  0  0  0
 35 40  1  0  0  0
 35 75  1  0  0  0
 36 39  2  0  0  0
 36 76  1  0  0  0
 37 39  1  0  0  0
 37 77  1  0  0  0
 38 40  2  0  0  0
 38 78  1  0  0  0
 39 79  1  0  0  0
 40 80  1  0  0  0
M  END
> <chembl_id>
CHEMBL188563

> <chembl_pref_name>
None

> <i_m_ct_stereo_status>
1

> <s_m_source_file>
sdf/inactives_sanitized.sdf

> <i_m_source_file_index>
506

> <i_lp_mmshare_version>
49012

> <i_f3d_flags>
0

> <s_epik_input>
W2NIXTFbY0hdW2NIXVtjSF1bY0hdYzEtYzJubmMobzIpW0NIMl1bQ0BIXShDKFtDSDNdKShbQ0gzXSlbQ0gyXVtDSDNdKU9DKD1PKVtOSF1bQ0BASF0oW0NIMl1bQ0gyXVtDSDJdW0NIM10pQyg9TylDKD1PKVtOSF1bQ0BIXShbQ0gzXSljM1tjSF1bY0hdW2NIXVtjSF1bY0hdMw==

> <s_epik_cmdline>
J2VwaWtfcHl0aG9uJywgJy1waHQnLCAnMC41JywgJy1waCcsICc3LjUnLCAnLW50JywgJy1tYScsICcyMDAnLCAnLWltYWUnLCAnPGluZmlsZS5tYWU+JywgJy1vbWFlJywgJzxvdXRmaWxlLm1hZT4n

> <r_lp_tautomer_probability>
1

> <r_epik_Ionization_Penalty>
  0.0000

> <r_epik_Ionization_Penalty_Charging>
  0.0000

> <r_epik_Ionization_Penalty_Neutral>
  0.0000

> <r_epik_State_Penalty>
 -0.0000

> <r_epik_Charging_Adjusted_Penalty>
0

> <i_epik_Tot_Q>
0

> <i_epik_Tot_abs_Q>
0

> <s_epik_Chemistry_Notes>
This compound has an ester and may undergo hydrolysis at high or low pH.

> <s_lp_Force_Field>
OPLS3e

> <r_lp_Energy>
40.119935

> <b_lp_Chiralities_Consistent>
1

> <s_lp_Variant>
sdf/inactives_sanitized.sdf:506-1

$$$$
sdf/inactives_sanitized.sdf:507
                    3D
 Schrodinger Suite 2020-1.
 35 36  0  0  1  0            999 V2000
   -2.2210    1.1419   -0.0342 C   0  0  0  0  0  0
   -2.8642   -0.0991    0.0581 C   0  0  0  0  0  0
   -2.1246   -1.2748    0.1444 C   0  0  0  0  0  0
   -0.7332   -1.2255    0.1376 C   0  0  0  0  0  0
   -0.0491   -0.0033    0.0411 C   0  0  0  0  0  0
   -0.8167    1.1705   -0.0406 C   0  0  0  0  0  0
    1.4489    0.0527    0.0276 C   0  0  0  0  0  0
    2.1608    1.1133   -0.5604 C   0  0  0  0  0  0
    3.5597    1.0571   -0.5275 C   0  0  0  0  0  0
    4.2334    0.0241    0.0459 N   0  0  0  0  0  0
    3.4647   -0.9567    0.5807 C   0  0  0  0  0  0
    2.1083   -0.9987    0.5987 N   0  0  0  0  0  0
    4.4103    2.1588   -1.1430 C   0  0  0  0  0  0
    5.1193    3.0328   -0.0916 C   0  0  0  0  0  0
    5.9548    4.1576   -0.7175 C   0  0  0  0  0  0
    4.1620   -2.0760    1.1898 C   0  0  0  0  0  0
    4.7175   -2.9681    1.6749 N   0  0  0  0  0  0
   -3.0411    2.3943   -0.1204 C   0  0  0  0  0  0
   -4.2725    2.4040   -0.1111 O   0  0  0  0  0  0
   -2.3097    3.7341   -0.2280 C   0  0  0  0  0  0
   -3.9433   -0.1672    0.0656 H   0  0  0  0  0  0
   -2.6304   -2.2266    0.2149 H   0  0  0  0  0  0
   -0.1882   -2.1563    0.1995 H   0  0  0  0  0  0
   -0.3051    2.1191   -0.0972 H   0  0  0  0  0  0
    1.6598    1.9437   -1.0351 H   0  0  0  0  0  0
    5.1442    1.7022   -1.8095 H   0  0  0  0  0  0
    3.7834    2.7860   -1.7794 H   0  0  0  0  0  0
    4.3787    3.4708    0.5791 H   0  0  0  0  0  0
    5.7673    2.4134    0.5300 H   0  0  0  0  0  0
    6.4334    4.7617    0.0537 H   0  0  0  0  0  0
    5.3359    4.8226   -1.3210 H   0  0  0  0  0  0
    6.7407    3.7573   -1.3589 H   0  0  0  0  0  0
   -1.6840    3.7526   -1.1205 H   0  0  0  0  0  0
   -1.6619    3.8818    0.6364 H   0  0  0  0  0  0
   -3.0141    4.5648   -0.2789 H   0  0  0  0  0  0
  1  6  2  0  0  0
  1  2  1  0  0  0
  1 18  1  0  0  0
  2  3  2  0  0  0
  2 21  1  0  0  0
  3  4  1  0  0  0
  3 22  1  0  0  0
  4  5  2  0  0  0
  4 23  1  0  0  0
  5  6  1  0  0  0
  5  7  1  0  0  0
  6 24  1  0  0  0
  7 12  1  0  0  0
  7  8  2  0  0  0
  8  9  1  0  0  0
  8 25  1  0  0  0
  9 10  2  0  0  0
  9 13  1  0  0  0
 10 11  1  0  0  0
 11 12  2  0  0  0
 11 16  1  0  0  0
 13 14  1  0  0  0
 13 26  1  0  0  0
 13 27  1  0  0  0
 14 15  1  0  0  0
 14 28  1  0  0  0
 14 29  1  0  0  0
 15 30  1  0  0  0
 15 31  1  0  0  0
 15 32  1  0  0  0
 16 17  3  0  0  0
 18 19  2  0  0  0
 18 20  1  0  0  0
 20 33  1  0  0  0
 20 34  1  0  0  0
 20 35  1  0  0  0
M  END
> <chembl_id>
CHEMBL1209247

> <chembl_pref_name>
None

> <s_m_source_file>
sdf/inactives_sanitized.sdf

> <i_m_source_file_index>
507

> <i_lp_mmshare_version>
49012

> <i_m_ct_stereo_status>
1

> <i_f3d_flags>
0

> <s_epik_input>
Tz1DKFtDSDNdKWMxW2NIXVtjSF1bY0hdYyhbY0hdMSktYzJbY0hdYyhuYyhuMilDI04pW0NIMl1bQ0gyXVtDSDNd

> <s_epik_cmdline>
J2VwaWtfcHl0aG9uJywgJy1waHQnLCAnMC41JywgJy1waCcsICc3LjUnLCAnLW50JywgJy1tYScsICcyMDAnLCAnLWltYWUnLCAnPGluZmlsZS5tYWU+JywgJy1vbWFlJywgJzxvdXRmaWxlLm1hZT4n

> <r_lp_tautomer_probability>
1

> <r_epik_Ionization_Penalty>
  0.0000

> <r_epik_Ionization_Penalty_Charging>
  0.0000

> <r_epik_Ionization_Penalty_Neutral>
  0.0000

> <r_epik_State_Penalty>
 -0.0000

> <r_epik_Charging_Adjusted_Penalty>
0

> <i_epik_Tot_Q>
0

> <i_epik_Tot_abs_Q>
0

> <s_lp_Force_Field>
OPLS3e

> <r_lp_Energy>
26.413524

> <b_lp_Chiralities_Consistent>
1

> <s_lp_Variant>
sdf/inactives_sanitized.sdf:507-1

$$$$
sdf/inactives_sanitized.sdf:508
                    3D
 Schrodinger Suite 2020-1.
 43 44  0  0  1  0            999 V2000
    0.5996   -2.7851    2.4796 C   0  0  0  0  0  0
    1.0857   -4.0933    2.5068 C   0  0  0  0  0  0
    0.9127   -4.9247    1.3998 C   0  0  0  0  0  0
    0.2509   -4.4493    0.2682 C   0  0  0  0  0  0
   -0.2349   -3.1421    0.2413 C   0  0  0  0  0  0
   -0.0563   -2.2968    1.3437 C   0  0  0  0  0  0
   -0.5778   -0.8598    1.3205 C   0  0  0  0  0  0
   -0.0803   -0.0321    0.1026 C   0  0  2  0  0  0
    1.3839    0.0575    0.0591 N   0  0  0  0  0  0
   -0.6739    1.3899    0.1405 C   0  0  0  0  0  0
   -0.2701    2.2031    0.9743 O   0  0  0  0  0  0
   -1.6569    1.6507   -0.7375 N   0  0  0  0  0  0
   -2.3108    2.9490   -0.8683 C   0  0  0  0  0  0
   -1.4025    4.0019   -1.3568 C   0  0  0  0  0  0
   -0.6895    4.8284   -1.7407 N   0  0  0  0  0  0
    2.1946   -0.5725   -0.8129 C   0  0  0  0  0  0
    1.7798   -1.3295   -1.6937 O   0  0  0  0  0  0
    3.6776   -0.3316   -0.6370 C   0  0  0  0  0  0
    1.9025   -4.6812    3.9090 Cl  0  0  0  0  0  0
    4.5956   -1.2660   -1.1361 C   0  0  0  0  0  0
    5.9647   -1.0618   -0.9873 C   0  0  0  0  0  0
    6.4329    0.0841   -0.3450 C   0  0  0  0  0  0
    5.5301    1.0223    0.1556 C   0  0  0  0  0  0
    4.1609    0.8177    0.0092 C   0  0  0  0  0  0
    7.9264    0.2973   -0.1759 C   0  0  0  0  0  0
    0.7418   -2.1482    3.3410 H   0  0  0  0  0  0
    1.2885   -5.9374    1.4165 H   0  0  0  0  0  0
    0.1148   -5.0934   -0.5882 H   0  0  0  0  0  0
   -0.7471   -2.7903   -0.6420 H   0  0  0  0  0  0
   -1.6683   -0.9036    1.3396 H   0  0  0  0  0  0
   -0.2852   -0.3585    2.2460 H   0  0  0  0  0  0
   -0.4440   -0.5192   -0.8045 H   0  0  0  0  0  0
    1.7972    0.6631    0.7529 H   0  0  0  0  0  0
   -1.9233    0.9386   -1.4022 H   0  0  0  0  0  0
   -3.1342    2.8602   -1.5770 H   0  0  0  0  0  0
   -2.7404    3.2660    0.0834 H   0  0  0  0  0  0
    4.2572   -2.1613   -1.6386 H   0  0  0  0  0  0
    6.6587   -1.7944   -1.3732 H   0  0  0  0  0  0
    5.8852    1.9121    0.6553 H   0  0  0  0  0  0
    3.4864    1.5664    0.3995 H   0  0  0  0  0  0
    8.1444    0.9937    0.6350 H   0  0  0  0  0  0
    8.3656    0.6753   -1.0995 H   0  0  0  0  0  0
    8.4191   -0.6433    0.0738 H   0  0  0  0  0  0
  1  6  2  0  0  0
  1  2  1  0  0  0
  1 26  1  0  0  0
  2 19  1  0  0  0
  2  3  2  0  0  0
  3  4  1  0  0  0
  3 27  1  0  0  0
  4  5  2  0  0  0
  4 28  1  0  0  0
  5  6  1  0  0  0
  5 29  1  0  0  0
  6  7  1  0  0  0
  7  8  1  0  0  0
  7 30  1  0  0  0
  7 31  1  0  0  0
  8  9  1  0  0  0
  8 10  1  0  0  0
  8 32  1  0  0  0
  9 16  1  0  0  0
  9 33  1  0  0  0
 10 11  2  0  0  0
 10 12  1  0  0  0
 12 13  1  0  0  0
 12 34  1  0  0  0
 13 14  1  0  0  0
 13 35  1  0  0  0
 13 36  1  0  0  0
 14 15  3  0  0  0
 16 17  2  0  0  0
 16 18  1  0  0  0
 18 20  2  0  0  0
 18 24  1  0  0  0
 20 21  1  0  0  0
 20 37  1  0  0  0
 21 22  2  0  0  0
 21 38  1  0  0  0
 22 23  1  0  0  0
 22 25  1  0  0  0
 23 24  2  0  0  0
 23 39  1  0  0  0
 24 40  1  0  0  0
 25 41  1  0  0  0
 25 42  1  0  0  0
 25 43  1  0  0  0
M  END
> <chembl_id>
CHEMBL560785

> <chembl_pref_name>
None

> <i_m_ct_stereo_status>
1

> <s_m_source_file>
sdf/inactives_sanitized.sdf

> <i_m_source_file_index>
508

> <i_lp_mmshare_version>
49012

> <i_f3d_flags>
0

> <s_epik_input>
W2NIXTFbY0hdW2NIXWMoW2NIXWMxQ2wpW0NIMl1bQ0BASF0oQyg9TylbTkhdW0NIMl1DI04pW05IXUMoPU8pYzJbY0hdW2NIXWMoW0NIM10pW2NIXVtjSF0y

> <s_epik_cmdline>
J2VwaWtfcHl0aG9uJywgJy1waHQnLCAnMC41JywgJy1waCcsICc3LjUnLCAnLW50JywgJy1tYScsICcyMDAnLCAnLWltYWUnLCAnPGluZmlsZS5tYWU+JywgJy1vbWFlJywgJzxvdXRmaWxlLm1hZT4n

> <r_lp_tautomer_probability>
1

> <r_epik_Ionization_Penalty>
  0.0000

> <r_epik_Ionization_Penalty_Charging>
  0.0000

> <r_epik_Ionization_Penalty_Neutral>
  0.0000

> <r_epik_State_Penalty>
 -0.0000

> <r_epik_Charging_Adjusted_Penalty>
0

> <i_epik_Tot_Q>
0

> <i_epik_Tot_abs_Q>
0

> <s_lp_Force_Field>
OPLS3e

> <r_lp_Energy>
20.516746

> <b_lp_Chiralities_Consistent>
1

> <s_lp_Variant>
sdf/inactives_sanitized.sdf:508-1

$$$$
sdf/inactives_sanitized.sdf:509
                    3D
 Schrodinger Suite 2020-1.
 29 30  0  0  1  0            999 V2000
   -0.6532   -1.1405    0.0611 C   0  0  0  0  0  0
   -0.0006    0.0909   -0.0714 C   0  0  0  0  0  0
   -0.7166    1.2521   -0.1121 N   0  0  0  0  0  0
   -2.0691    1.1638   -0.0131 C   0  0  0  0  0  0
   -2.7120   -0.0700    0.1217 C   0  0  0  0  0  0
   -2.0063   -1.2306    0.1590 N   0  0  0  0  0  0
   -2.8054    2.4161   -0.0555 C   0  0  0  0  0  0
   -3.3924    3.4129   -0.0889 N   0  0  0  0  0  0
    1.4013    0.1046   -0.1739 N   0  0  0  0  0  0
    2.1712    1.3475   -0.1031 C   0  0  0  0  0  0
    3.5272    1.1329   -0.8115 C   0  0  0  0  0  0
    4.4321    2.3748   -0.6841 C   0  0  0  0  0  0
    4.6194    2.8014    0.7862 C   0  0  0  0  0  0
    3.2710    2.9900    1.5107 C   0  0  0  0  0  0
    2.3683    1.7468    1.3789 C   0  0  0  0  0  0
   -0.1047   -2.0711    0.0891 H   0  0  0  0  0  0
   -3.7869   -0.1502    0.2003 H   0  0  0  0  0  0
    1.8823   -0.7432    0.0896 H   0  0  0  0  0  0
    1.6177    2.1401   -0.6094 H   0  0  0  0  0  0
    4.0429    0.2671   -0.3909 H   0  0  0  0  0  0
    3.3675    0.9099   -1.8677 H   0  0  0  0  0  0
    5.4028    2.1760   -1.1396 H   0  0  0  0  0  0
    3.9958    3.2008   -1.2480 H   0  0  0  0  0  0
    5.2080    2.0462    1.3094 H   0  0  0  0  0  0
    5.1993    3.7238    0.8345 H   0  0  0  0  0  0
    3.4431    3.2150    2.5639 H   0  0  0  0  0  0
    2.7551    3.8572    1.0953 H   0  0  0  0  0  0
    1.4044    1.9526    1.8469 H   0  0  0  0  0  0
    2.8089    0.9197    1.9392 H   0  0  0  0  0  0
  1  6  2  0  0  0
  1  2  1  0  0  0
  1 16  1  0  0  0
  2  9  1  0  0  0
  2  3  2  0  0  0
  3  4  1  0  0  0
  4  5  2  0  0  0
  4  7  1  0  0  0
  5  6  1  0  0  0
  5 17  1  0  0  0
  7  8  3  0  0  0
  9 10  1  0  0  0
  9 18  1  0  0  0
 10 11  1  0  0  0
 10 15  1  0  0  0
 10 19  1  0  0  0
 11 12  1  0  0  0
 11 20  1  0  0  0
 11 21  1  0  0  0
 12 13  1  0  0  0
 12 22  1  0  0  0
 12 23  1  0  0  0
 13 14  1  0  0  0
 13 24  1  0  0  0
 13 25  1  0  0  0
 14 15  1  0  0  0
 14 26  1  0  0  0
 14 27  1  0  0  0
 15 28  1  0  0  0
 15 29  1  0  0  0
M  END
> <chembl_id>
CHEMBL218684

> <chembl_pref_name>
None

> <s_m_source_file>
sdf/inactives_sanitized.sdf

> <i_m_source_file_index>
509

> <i_lp_mmshare_version>
49012

> <i_m_ct_stereo_status>
1

> <i_f3d_flags>
0

> <s_epik_input>
TiNDYyhuMSlbY0hdbltjSF1jMVtOSF1bQ0hdMltDSDJdW0NIMl1bQ0gyXVtDSDJdW0NIMl0y

> <s_epik_cmdline>
J2VwaWtfcHl0aG9uJywgJy1waHQnLCAnMC41JywgJy1waCcsICc3LjUnLCAnLW50JywgJy1tYScsICcyMDAnLCAnLWltYWUnLCAnPGluZmlsZS5tYWU+JywgJy1vbWFlJywgJzxvdXRmaWxlLm1hZT4n

> <r_lp_tautomer_probability>
1

> <r_epik_Ionization_Penalty>
  0.0000

> <r_epik_Ionization_Penalty_Charging>
  0.0000

> <r_epik_Ionization_Penalty_Neutral>
  0.0000

> <r_epik_State_Penalty>
 -0.0000

> <r_epik_Charging_Adjusted_Penalty>
0

> <i_epik_Tot_Q>
0

> <i_epik_Tot_abs_Q>
0

> <s_lp_Force_Field>
OPLS3e

> <r_lp_Energy>
24.991605

> <b_lp_Chiralities_Consistent>
1

> <s_lp_Variant>
sdf/inactives_sanitized.sdf:509-1

$$$$
sdf/inactives_sanitized.sdf:510
                    3D
 Schrodinger Suite 2020-1.
 52 54  0  0  1  0            999 V2000
    0.0293   -2.8712    0.5319 C   0  0  0  0  0  0
    0.5060   -4.0813    1.0378 C   0  0  0  0  0  0
    0.9427   -4.1604    2.3603 C   0  0  0  0  0  0
    0.9012   -3.0301    3.1756 C   0  0  0  0  0  0
    0.4294   -1.8192    2.6680 C   0  0  0  0  0  0
   -0.0013   -1.7267    1.3395 C   0  0  0  0  0  0
   -0.5052   -0.3879    0.7951 C   0  0  0  0  0  0
    0.0959    0.0074   -0.5840 C   0  0  2  0  0  0
    1.5629    0.0202   -0.5501 N   0  0  0  0  0  0
   -0.4273    1.3960   -1.0068 C   0  0  0  0  0  0
    0.1082    2.4197   -0.5760 O   0  0  0  0  0  0
   -1.4993    1.4043   -1.8162 N   0  0  0  0  0  0
   -2.1851    2.6185   -2.2479 C   0  0  0  0  0  0
   -2.8369    3.3341   -1.1363 C   0  0  0  0  0  0
   -3.3488    3.8954   -0.2633 N   0  0  0  0  0  0
    2.3817   -0.8010   -1.2312 C   0  0  0  0  0  0
    1.9875   -1.7110   -1.9630 O   0  0  0  0  0  0
    3.8581   -0.5953   -0.9855 C   0  0  0  0  0  0
    0.5573   -5.4783    0.0261 Cl  0  0  0  0  0  0
    6.6148   -0.3969   -0.4009 C   0  0  0  0  0  0
    5.9863   -1.6370   -0.4092 C   0  0  0  0  0  0
    4.6299   -1.7271   -0.7002 C   0  0  0  0  0  0
    5.8955    0.7798   -0.7130 C   0  0  0  0  0  0
    4.4996    0.6973   -1.0270 C   0  0  0  0  0  0
    3.8351    1.9114   -1.3856 C   0  0  0  0  0  0
    4.5043    3.1338   -1.3970 C   0  0  0  0  0  0
    5.8511    3.1937   -1.0561 C   0  0  0  0  0  0
    6.5475    2.0381   -0.7237 C   0  0  0  0  0  0
    6.7704   -2.8934   -0.0749 C   0  0  0  0  0  0
    3.7539    4.4016   -1.7638 C   0  0  0  0  0  0
   -0.3088   -2.8268   -0.4926 H   0  0  0  0  0  0
    1.3117   -5.0954    2.7560 H   0  0  0  0  0  0
    1.2365   -3.0913    4.2004 H   0  0  0  0  0  0
    0.4070   -0.9516    3.3114 H   0  0  0  0  0  0
   -0.2705    0.3934    1.5220 H   0  0  0  0  0  0
   -1.5944   -0.4344    0.7440 H   0  0  0  0  0  0
   -0.2548   -0.7179   -1.3210 H   0  0  0  0  0  0
    1.9731    0.7351    0.0333 H   0  0  0  0  0  0
   -1.9112    0.5254   -2.0945 H   0  0  0  0  0  0
   -1.4941    3.2981   -2.7495 H   0  0  0  0  0  0
   -2.9547    2.3523   -2.9723 H   0  0  0  0  0  0
    7.6675   -0.3236   -0.1666 H   0  0  0  0  0  0
    4.1641   -2.7034   -0.6784 H   0  0  0  0  0  0
    2.7951    1.8989   -1.6715 H   0  0  0  0  0  0
    6.3701    4.1413   -1.0594 H   0  0  0  0  0  0
    7.5978    2.0968   -0.4763 H   0  0  0  0  0  0
    6.2081   -3.5137    0.6242 H   0  0  0  0  0  0
    7.7271   -2.6643    0.3964 H   0  0  0  0  0  0
    6.9468   -3.4829   -0.9749 H   0  0  0  0  0  0
    4.2040    5.2787   -1.2967 H   0  0  0  0  0  0
    2.7222    4.3547   -1.4123 H   0  0  0  0  0  0
    3.7439    4.5412   -2.8450 H   0  0  0  0  0  0
  1  6  2  0  0  0
  1  2  1  0  0  0
  1 31  1  0  0  0
  2 19  1  0  0  0
  2  3  2  0  0  0
  3  4  1  0  0  0
  3 32  1  0  0  0
  4  5  2  0  0  0
  4 33  1  0  0  0
  5  6  1  0  0  0
  5 34  1  0  0  0
  6  7  1  0  0  0
  7  8  1  0  0  0
  7 35  1  0  0  0
  7 36  1  0  0  0
  8  9  1  0  0  0
  8 10  1  0  0  0
  8 37  1  0  0  0
  9 16  1  0  0  0
  9 38  1  0  0  0
 10 11  2  0  0  0
 10 12  1  0  0  0
 12 13  1  0  0  0
 12 39  1  0  0  0
 13 14  1  0  0  0
 13 40  1  0  0  0
 13 41  1  0  0  0
 14 15  3  0  0  0
 16 17  2  0  0  0
 16 18  1  0  0  0
 18 24  2  0  0  0
 18 22  1  0  0  0
 20 23  2  0  0  0
 20 21  1  0  0  0
 20 42  1  0  0  0
 21 22  2  0  0  0
 21 29  1  0  0  0
 22 43  1  0  0  0
 23 24  1  0  0  0
 23 28  1  0  0  0
 24 25  1  0  0  0
 25 26  2  0  0  0
 25 44  1  0  0  0
 26 27  1  0  0  0
 26 30  1  0  0  0
 27 28  2  0  0  0
 27 45  1  0  0  0
 28 46  1  0  0  0
 29 47  1  0  0  0
 29 48  1  0  0  0
 29 49  1  0  0  0
 30 50  1  0  0  0
 30 51  1  0  0  0
 30 52  1  0  0  0
M  END
> <chembl_id>
CHEMBL549365

> <chembl_pref_name>
None

> <i_m_ct_stereo_status>
1

> <s_m_source_file>
sdf/inactives_sanitized.sdf

> <i_m_source_file_index>
510

> <i_lp_mmshare_version>
49012

> <i_f3d_flags>
0

> <s_epik_input>
W2NIXTFbY0hdW2NIXWMoW2NIXWMxQ2wpW0NIMl1bQ0BASF0oQyg9TylbTkhdW0NIMl1DI04pW05IXUMoPU8pYyhbY0hdYyhbY0hdMilbQ0gzXSljKGMyMylbY0hdYyhbQ0gzXSlbY0hdW2NIXTM=

> <s_epik_cmdline>
J2VwaWtfcHl0aG9uJywgJy1waHQnLCAnMC41JywgJy1waCcsICc3LjUnLCAnLW50JywgJy1tYScsICcyMDAnLCAnLWltYWUnLCAnPGluZmlsZS5tYWU+JywgJy1vbWFlJywgJzxvdXRmaWxlLm1hZT4n

> <r_lp_tautomer_probability>
1

> <r_epik_Ionization_Penalty>
  0.0000

> <r_epik_Ionization_Penalty_Charging>
  0.0000

> <r_epik_Ionization_Penalty_Neutral>
  0.0000

> <r_epik_State_Penalty>
 -0.0000

> <r_epik_Charging_Adjusted_Penalty>
0

> <i_epik_Tot_Q>
0

> <i_epik_Tot_abs_Q>
0

> <s_lp_Force_Field>
OPLS3e

> <r_lp_Energy>
32.410209

> <b_lp_Chiralities_Consistent>
1

> <s_lp_Variant>
sdf/inactives_sanitized.sdf:510-1

$$$$
sdf/inactives_sanitized.sdf:511
                    3D
 Schrodinger Suite 2020-1.
 42 44  0  0  1  0            999 V2000
   -2.1571    1.3890   -0.5084 C   0  0  0  0  0  0
   -0.9630    1.8208    0.7227 S   0  0  0  0  0  0
   -0.0466    0.2570    0.9728 C   0  0  0  0  0  0
    1.4231    0.2126    0.4735 C   0  0  1  0  0  0
    1.6353    0.5986   -1.0298 C   0  0  1  0  0  0
    3.1257    0.4780   -1.4496 C   0  0  0  0  0  0
    4.0255    1.3298   -0.5305 C   0  0  0  0  0  0
    3.8208    0.9916    0.9585 C   0  0  0  0  0  0
    2.3378    1.0970    1.3580 C   0  0  0  0  0  0
    0.8003   -0.2596   -2.0094 C   0  0  0  0  0  0
    0.5300   -1.4331   -1.7494 O   0  0  0  0  0  0
    0.4047    0.3488   -3.1412 N   0  0  0  0  0  0
   -0.3628   -0.2827   -4.2100 C   0  0  0  0  0  0
   -1.3689    0.6399   -4.7564 C   0  0  0  0  0  0
   -2.1587    1.3668   -5.1880 N   0  0  0  0  0  0
   -2.2244    0.0910   -0.9340 O   0  0  0  0  0  0
   -3.0285    2.2097   -1.0563 N   0  0  0  0  0  0
   -3.7358    1.4094   -1.9097 C   0  0  0  0  0  0
   -4.8030    1.6925   -2.7763 C   0  0  0  0  0  0
   -5.3252    0.6407   -3.5390 C   0  0  0  0  0  0
   -4.8078   -0.6566   -3.4501 C   0  0  0  0  0  0
   -3.7473   -0.9615   -2.5926 C   0  0  0  0  0  0
   -3.2387    0.0991   -1.8371 C   0  0  0  0  0  0
   -0.5930   -0.6003    0.5863 H   0  0  0  0  0  0
   -0.0474    0.0855    2.0498 H   0  0  0  0  0  0
    1.7679   -0.8169    0.5945 H   0  0  0  0  0  0
    1.3002    1.6271   -1.1820 H   0  0  0  0  0  0
    3.4797   -0.5500   -1.3453 H   0  0  0  0  0  0
    3.2885    0.8488   -2.4636 H   0  0  0  0  0  0
    5.0726    1.1864   -0.8007 H   0  0  0  0  0  0
    3.8138    2.3879   -0.6937 H   0  0  0  0  0  0
    4.1831   -0.0182    1.1585 H   0  0  0  0  0  0
    4.4213    1.6595    1.5772 H   0  0  0  0  0  0
    2.0074    2.1362    1.3164 H   0  0  0  0  0  0
    2.2270    0.8113    2.4050 H   0  0  0  0  0  0
    0.7864    1.2602   -3.3481 H   0  0  0  0  0  0
    0.3113   -0.5745   -5.0155 H   0  0  0  0  0  0
   -0.8833   -1.1841   -3.8819 H   0  0  0  0  0  0
   -5.2099    2.6895   -2.8562 H   0  0  0  0  0  0
   -6.1455    0.8349   -4.2146 H   0  0  0  0  0  0
   -5.2378   -1.4391   -4.0581 H   0  0  0  0  0  0
   -3.3416   -1.9596   -2.5186 H   0  0  0  0  0  0
  1  2  1  0  0  0
  1 16  1  0  0  0
  1 17  2  0  0  0
  2  3  1  0  0  0
  3  4  1  0  0  0
  3 24  1  0  0  0
  3 25  1  0  0  0
  4  5  1  0  0  0
  4  9  1  0  0  0
  4 26  1  0  0  0
  5  6  1  0  0  0
  5 10  1  0  0  0
  5 27  1  0  0  0
  6  7  1  0  0  0
  6 28  1  0  0  0
  6 29  1  0  0  0
  7  8  1  0  0  0
  7 30  1  0  0  0
  7 31  1  0  0  0
  8  9  1  0  0  0
  8 32  1  0  0  0
  8 33  1  0  0  0
  9 34  1  0  0  0
  9 35  1  0  0  0
 10 12  1  0  0  0
 10 11  2  0  0  0
 12 13  1  0  0  0
 12 36  1  0  0  0
 13 14  1  0  0  0
 13 37  1  0  0  0
 13 38  1  0  0  0
 14 15  3  0  0  0
 16 23  1  0  0  0
 17 18  1  0  0  0
 18 23  2  0  0  0
 18 19  1  0  0  0
 19 20  2  0  0  0
 19 39  1  0  0  0
 20 21  1  0  0  0
 20 40  1  0  0  0
 21 22  2  0  0  0
 21 41  1  0  0  0
 22 23  1  0  0  0
 22 42  1  0  0  0
M  END
> <chembl_id>
CHEMBL202114

> <chembl_pref_name>
None

> <i_m_ct_stereo_status>
1

> <s_m_source_file>
sdf/inactives_sanitized.sdf

> <i_m_source_file_index>
511

> <i_lp_mmshare_version>
49012

> <i_f3d_flags>
0

> <s_epik_input>
W2NIXTFbY0hdW2NIXVtjSF1jKGMxMilvYyhuMilTW0NIMl1bQ0BIXTNbQ0BASF0oW0NIMl1bQ0gyXVtDSDJdW0NIMl0zKUMoPU8pW05IXVtDSDJdQyNO

> <s_epik_cmdline>
J2VwaWtfcHl0aG9uJywgJy1waHQnLCAnMC41JywgJy1waCcsICc3LjUnLCAnLW50JywgJy1tYScsICcyMDAnLCAnLWltYWUnLCAnPGluZmlsZS5tYWU+JywgJy1vbWFlJywgJzxvdXRmaWxlLm1hZT4n

> <r_lp_tautomer_probability>
1

> <r_epik_Ionization_Penalty>
  0.0000

> <r_epik_Ionization_Penalty_Charging>
  0.0000

> <r_epik_Ionization_Penalty_Neutral>
  0.0000

> <r_epik_State_Penalty>
 -0.0000

> <r_epik_Charging_Adjusted_Penalty>
0

> <i_epik_Tot_Q>
0

> <i_epik_Tot_abs_Q>
0

> <s_lp_Force_Field>
OPLS3e

> <r_lp_Energy>
22.590216

> <b_lp_Chiralities_Consistent>
1

> <s_lp_Variant>
sdf/inactives_sanitized.sdf:511-1

$$$$
sdf/inactives_sanitized.sdf:512
                    3D
 Schrodinger Suite 2020-1.
 41 42  0  0  1  0            999 V2000
   -4.9903    0.9161   -2.1474 C   0  0  0  0  0  0
   -4.4170    2.1797   -2.2940 C   0  0  0  0  0  0
   -3.0955    2.3959   -1.8987 C   0  0  0  0  0  0
   -2.3430    1.3504   -1.3578 C   0  0  0  0  0  0
   -2.9223    0.0848   -1.2093 C   0  0  0  0  0  0
   -4.2431   -0.1296   -1.6051 C   0  0  0  0  0  0
   -0.6664    1.6705   -0.8797 S   0  0  0  0  0  0
    0.1111    0.1065   -0.3622 C   0  0  0  0  0  0
    1.6448    0.1381   -0.1239 C   0  0  1  0  0  0
    2.4847    0.6351   -1.3476 C   0  0  1  0  0  0
    4.0082    0.5598   -1.0567 C   0  0  0  0  0  0
    4.3575    1.3745    0.2070 C   0  0  0  0  0  0
    3.5205    0.9426    1.4282 C   0  0  0  0  0  0
    2.0114    0.9828    1.1209 C   0  0  0  0  0  0
    2.1791   -0.2020   -2.6113 C   0  0  0  0  0  0
    2.4076   -1.4127   -2.6283 O   0  0  0  0  0  0
    1.6276    0.4503   -3.6494 N   0  0  0  0  0  0
    1.1571   -0.1926   -4.8720 C   0  0  0  0  0  0
   -0.0343   -1.0281   -4.6399 C   0  0  0  0  0  0
   -0.9706   -1.6829   -4.4558 N   0  0  0  0  0  0
   -5.1511    3.2063   -2.8259 O   0  0  0  0  0  0
   -6.0123    0.7430   -2.4520 H   0  0  0  0  0  0
   -2.6530    3.3749   -2.0144 H   0  0  0  0  0  0
   -2.3692   -0.7407   -0.7891 H   0  0  0  0  0  0
   -4.6876   -1.1074   -1.4910 H   0  0  0  0  0  0
   -0.3916   -0.2307    0.5450 H   0  0  0  0  0  0
   -0.1178   -0.6489   -1.1144 H   0  0  0  0  0  0
    1.9525   -0.8889    0.0868 H   0  0  0  0  0  0
    2.2224    1.6692   -1.5834 H   0  0  0  0  0  0
    4.3217   -0.4649   -0.8452 H   0  0  0  0  0  0
    4.5912    0.9899   -1.8732 H   0  0  0  0  0  0
    5.4197    1.2716    0.4333 H   0  0  0  0  0  0
    4.1924    2.4355    0.0127 H   0  0  0  0  0  0
    3.8056   -0.0672    1.7277 H   0  0  0  0  0  0
    3.7440    1.5876    2.2787 H   0  0  0  0  0  0
    1.6811    2.0138    0.9847 H   0  0  0  0  0  0
    1.4536    0.6238    1.9869 H   0  0  0  0  0  0
    1.4262    1.4347   -3.5517 H   0  0  0  0  0  0
    0.8942    0.5759   -5.5988 H   0  0  0  0  0  0
    1.9409   -0.8047   -5.3209 H   0  0  0  0  0  0
   -4.6603    4.0293   -2.8814 H   0  0  0  0  0  0
  1  6  2  0  0  0
  1  2  1  0  0  0
  1 22  1  0  0  0
  2  3  2  0  0  0
  2 21  1  0  0  0
  3  4  1  0  0  0
  3 23  1  0  0  0
  4  7  1  0  0  0
  4  5  2  0  0  0
  5  6  1  0  0  0
  5 24  1  0  0  0
  6 25  1  0  0  0
  7  8  1  0  0  0
  8  9  1  0  0  0
  8 26  1  0  0  0
  8 27  1  0  0  0
  9 14  1  0  0  0
  9 10  1  0  0  0
  9 28  1  0  0  0
 10 11  1  0  0  0
 10 15  1  0  0  0
 10 29  1  0  0  0
 11 12  1  0  0  0
 11 30  1  0  0  0
 11 31  1  0  0  0
 12 13  1  0  0  0
 12 32  1  0  0  0
 12 33  1  0  0  0
 13 14  1  0  0  0
 13 34  1  0  0  0
 13 35  1  0  0  0
 14 36  1  0  0  0
 14 37  1  0  0  0
 15 16  2  0  0  0
 15 17  1  0  0  0
 17 18  1  0  0  0
 17 38  1  0  0  0
 18 19  1  0  0  0
 18 39  1  0  0  0
 18 40  1  0  0  0
 19 20  3  0  0  0
 21 41  1  0  0  0
M  END
> <chembl_id>
CHEMBL383625

> <chembl_pref_name>
None

> <i_m_ct_stereo_status>
1

> <s_m_source_file>
sdf/inactives_sanitized.sdf

> <i_m_source_file_index>
512

> <i_lp_mmshare_version>
49012

> <i_f3d_flags>
0

> <s_epik_input>
W09IXWMxW2NIXVtjSF1bY0hdYyhbY0hdMSlTW0NIMl1bQ0BIXTJbQ0BASF0oW0NIMl1bQ0gyXVtDSDJdW0NIMl0yKUMoPU8pW05IXVtDSDJdQyNO

> <s_epik_cmdline>
J2VwaWtfcHl0aG9uJywgJy1waHQnLCAnMC41JywgJy1waCcsICc3LjUnLCAnLW50JywgJy1tYScsICcyMDAnLCAnLWltYWUnLCAnPGluZmlsZS5tYWU+JywgJy1vbWFlJywgJzxvdXRmaWxlLm1hZT4n

> <r_lp_tautomer_probability>
1

> <r_epik_Ionization_Penalty>
  0.0067

> <r_epik_Ionization_Penalty_Charging>
  0.0000

> <r_epik_Ionization_Penalty_Neutral>
  0.0067

> <r_epik_State_Penalty>
 -0.0000

> <r_epik_Charging_Adjusted_Penalty>
0

> <i_epik_Tot_Q>
0

> <i_epik_Tot_abs_Q>
0

> <s_lp_Force_Field>
OPLS3e

> <r_lp_Energy>
14.777215

> <b_lp_Chiralities_Consistent>
1

> <s_lp_Variant>
sdf/inactives_sanitized.sdf:512-1

$$$$
sdf/inactives_sanitized.sdf:513
                    3D
 Schrodinger Suite 2020-1.
 58 61  0  0  1  0            999 V2000
    2.3103    0.1299    1.0100 C   0  0  0  0  0  0
    3.0968    0.7559   -0.1280 C   0  0  0  0  0  0
    2.8333    1.5458    1.1272 C   0  0  0  0  0  0
   -4.5182   -1.5084    1.2638 S   0  0  0  0  0  0
   -4.1241   -0.1119    1.4859 O   0  0  0  0  0  0
   -5.8420   -1.8199    0.7127 O   0  0  0  0  0  0
   -3.2039   -2.3521    0.1763 C   0  0  2  0  0  0
   -1.7899   -2.1132    0.7377 C   0  0  0  0  0  0
   -1.2224   -0.9506   -0.0876 C   0  0  2  0  0  0
   -1.8091   -1.1966   -1.5033 C   0  0  1  0  0  0
   -3.2232   -1.7609   -1.2508 C   0  0  0  0  0  0
    0.3225   -0.9214   -0.0372 C   0  0  0  0  0  0
   -1.8444    0.0720   -2.4028 C   0  0  0  0  0  0
   -2.0127    1.1678   -1.8604 O   0  0  0  0  0  0
   -1.8438   -0.0596   -3.7599 N   0  0  0  0  0  0
    0.8729   -0.0587    0.8343 N   0  0  0  0  0  0
    0.9954   -1.5890   -0.8246 O   0  0  0  0  0  0
    2.9829   -0.9317    1.7800 C   0  0  0  0  0  0
    3.5104   -1.7655    2.3847 N   0  0  0  0  0  0
   -4.3948   -2.3689    2.8312 C   0  0  0  0  0  0
   -4.9314   -3.6533    2.9481 C   0  0  0  0  0  0
   -4.8357   -4.3354    4.1581 C   0  0  0  0  0  0
   -4.2067   -3.7298    5.2442 C   0  0  0  0  0  0
   -3.6706   -2.4483    5.1318 C   0  0  0  0  0  0
   -3.7639   -1.7647    3.9223 C   0  0  0  0  0  0
   -1.7876    1.1360   -4.6187 C   0  0  0  0  0  0
   -0.2898    1.4412   -4.8684 C   0  0  0  0  0  0
    0.5005    0.2261   -5.4217 C   0  0  0  0  0  0
    0.1535   -1.0871   -4.6724 C   0  0  0  0  0  0
   -1.3674   -1.2641   -4.4580 C   0  0  0  0  0  0
    1.8907    0.4660   -5.3431 O   0  0  0  0  0  0
    4.1111    0.4057   -0.3217 H   0  0  0  0  0  0
    2.5744    1.0427   -1.0417 H   0  0  0  0  0  0
    3.6655    1.7441    1.8035 H   0  0  0  0  0  0
    2.1300    2.3781    1.0778 H   0  0  0  0  0  0
   -3.4618   -3.4117    0.1865 H   0  0  0  0  0  0
   -1.7878   -1.9069    1.8082 H   0  0  0  0  0  0
   -1.1995   -3.0224    0.6030 H   0  0  0  0  0  0
   -1.5819   -0.0062    0.3292 H   0  0  0  0  0  0
   -1.2167   -1.9649   -1.9986 H   0  0  0  0  0  0
   -3.9873   -0.9842   -1.3276 H   0  0  0  0  0  0
   -3.4539   -2.5318   -1.9874 H   0  0  0  0  0  0
    0.2727    0.4055    1.5003 H   0  0  0  0  0  0
   -5.4176   -4.1231    2.1053 H   0  0  0  0  0  0
   -5.2477   -5.3293    4.2540 H   0  0  0  0  0  0
   -4.1337   -4.2594    6.1828 H   0  0  0  0  0  0
   -3.1842   -1.9872    5.9789 H   0  0  0  0  0  0
   -3.3444   -0.7727    3.8393 H   0  0  0  0  0  0
   -2.2882    0.8863   -5.5553 H   0  0  0  0  0  0
   -2.3727    1.9680   -4.2237 H   0  0  0  0  0  0
   -0.2138    2.2732   -5.5692 H   0  0  0  0  0  0
    0.1640    1.8022   -3.9432 H   0  0  0  0  0  0
    0.2750    0.0806   -6.4793 H   0  0  0  0  0  0
    0.5286   -1.9397   -5.2398 H   0  0  0  0  0  0
    0.6660   -1.1315   -3.7092 H   0  0  0  0  0  0
   -1.6839   -2.1994   -3.9981 H   0  0  0  0  0  0
   -1.8784   -1.2916   -5.4217 H   0  0  0  0  0  0
    2.2856   -0.2112   -4.7889 H   0  0  0  0  0  0
  1  2  1  0  0  0
  1  3  1  0  0  0
  1 16  1  0  0  0
  1 18  1  0  0  0
  2  3  1  0  0  0
  2 32  1  0  0  0
  2 33  1  0  0  0
  3 34  1  0  0  0
  3 35  1  0  0  0
  4  5  2  0  0  0
  4  6  2  0  0  0
  4  7  1  0  0  0
  4 20  1  0  0  0
  7  8  1  0  0  0
  7 11  1  0  0  0
  7 36  1  0  0  0
  8  9  1  0  0  0
  8 37  1  0  0  0
  8 38  1  0  0  0
  9 10  1  0  0  0
  9 12  1  0  0  0
  9 39  1  0  0  0
 10 11  1  0  0  0
 10 13  1  0  0  0
 10 40  1  0  0  0
 11 41  1  0  0  0
 11 42  1  0  0  0
 12 16  1  0  0  0
 12 17  2  0  0  0
 13 14  2  0  0  0
 13 15  1  0  0  0
 15 26  1  0  0  0
 15 30  1  0  0  0
 16 43  1  0  0  0
 18 19  3  0  0  0
 20 21  2  0  0  0
 20 25  1  0  0  0
 21 22  1  0  0  0
 21 44  1  0  0  0
 22 23  2  0  0  0
 22 45  1  0  0  0
 23 24  1  0  0  0
 23 46  1  0  0  0
 24 25  2  0  0  0
 24 47  1  0  0  0
 25 48  1  0  0  0
 26 27  1  0  0  0
 26 49  1  0  0  0
 26 50  1  0  0  0
 27 28  1  0  0  0
 27 51  1  0  0  0
 27 52  1  0  0  0
 28 29  1  0  0  0
 28 31  1  0  0  0
 28 53  1  0  0  0
 29 30  1  0  0  0
 29 54  1  0  0  0
 29 55  1  0  0  0
 30 56  1  0  0  0
 30 57  1  0  0  0
 31 58  1  0  0  0
M  END
> <chembl_id>
CHEMBL3093829

> <chembl_pref_name>
None

> <i_m_ct_stereo_status>
1

> <s_m_source_file>
sdf/inactives_sanitized.sdf

> <i_m_source_file_index>
513

> <i_lp_mmshare_version>
49012

> <i_f3d_flags>
0

> <s_epik_input>
W0NIMl0xW0NIMl1bQ0hdKFtPSF0pW0NIMl1bQ0gyXU4xQyg9TylbQ0BIXShbQ0gyXTIpW0NASF0oQyg9TylbTkhdQzMoQyNOKVtDSDJdW0NIMl0zKVtDSDJdW0NASF0yUyg9TykoPU8pYzRbY0hdW2NIXVtjSF1bY0hdW2NIXTQ=

> <s_epik_cmdline>
J2VwaWtfcHl0aG9uJywgJy1waHQnLCAnMC41JywgJy1waCcsICc3LjUnLCAnLW50JywgJy1tYScsICcyMDAnLCAnLWltYWUnLCAnPGluZmlsZS5tYWU+JywgJy1vbWFlJywgJzxvdXRmaWxlLm1hZT4n

> <r_lp_tautomer_probability>
1

> <r_epik_Ionization_Penalty>
  0.0000

> <r_epik_Ionization_Penalty_Charging>
  0.0000

> <r_epik_Ionization_Penalty_Neutral>
  0.0000

> <r_epik_State_Penalty>
 -0.0000

> <r_epik_Charging_Adjusted_Penalty>
0

> <i_epik_Tot_Q>
0

> <i_epik_Tot_abs_Q>
0

> <s_lp_Force_Field>
OPLS3e

> <r_lp_Energy>
21.605016

> <b_lp_Chiralities_Consistent>
1

> <s_lp_Variant>
sdf/inactives_sanitized.sdf:513-1

$$$$
sdf/inactives_sanitized.sdf:514
                    3D
 Schrodinger Suite 2020-1.
 49 51  0  0  1  0            999 V2000
   -0.7044    2.0264   -1.1152 C   0  0  0  0  0  0
   -1.2557    3.3149   -1.1803 C   0  0  0  0  0  0
   -1.5843    3.9418    0.0340 C   0  0  0  0  0  0
   -1.3627    3.3105    1.2577 C   0  0  0  0  0  0
   -0.7963    2.0387    1.2948 C   0  0  0  0  0  0
   -0.4555    1.3917    0.1060 C   0  0  0  0  0  0
    0.1979    0.0117    0.1350 C   0  0  0  0  0  0
    1.7393    0.0658   -0.0596 C   0  0  2  0  0  0
    2.1227    0.7364   -1.3079 N   0  0  0  0  0  0
    2.3350   -1.3549   -0.0389 C   0  0  0  0  0  0
    2.1178   -2.1253   -0.9761 O   0  0  0  0  0  0
    3.0419   -1.6909    1.0527 N   0  0  0  0  0  0
    3.7053   -2.9791    1.2286 C   0  0  0  0  0  0
    4.8101   -3.1901    0.2759 C   0  0  0  0  0  0
    5.6775   -3.3557   -0.4719 N   0  0  0  0  0  0
    2.9708    1.7763   -1.4245 C   0  0  0  0  0  0
    3.5795    2.2595   -0.4671 O   0  0  0  0  0  0
    3.1515    2.3379   -2.8185 C   0  0  0  0  0  0
   -1.4590    3.9963   -2.5011 C   0  0  0  0  0  0
    4.2869    3.1057   -3.1157 C   0  0  0  0  0  0
    4.4618    3.6475   -4.3865 C   0  0  0  0  0  0
    3.5000    3.4300   -5.3689 C   0  0  0  0  0  0
    2.3642    2.6750   -5.0915 C   0  0  0  0  0  0
    2.1899    2.1303   -3.8223 C   0  0  0  0  0  0
   -1.5816    3.2857   -3.7073 C   0  0  0  0  0  0
   -1.7559    3.9879   -4.9013 C   0  0  0  0  0  0
   -1.8124    5.3808   -4.8779 C   0  0  0  0  0  0
   -1.6952    6.0275   -3.6487 C   0  0  0  0  0  0
   -1.5249    5.3592   -2.4799 N   0  0  0  0  0  0
   -0.4290    1.5097   -2.0214 H   0  0  0  0  0  0
   -2.0175    4.9315    0.0401 H   0  0  0  0  0  0
   -1.6224    3.8125    2.1780 H   0  0  0  0  0  0
   -0.6145    1.5638    2.2478 H   0  0  0  0  0  0
   -0.0580   -0.4849    1.0732 H   0  0  0  0  0  0
   -0.2759   -0.6001   -0.6357 H   0  0  0  0  0  0
    2.1389    0.6243    0.7905 H   0  0  0  0  0  0
    1.6919    0.3683   -2.1432 H   0  0  0  0  0  0
    3.1928   -0.9987    1.7724 H   0  0  0  0  0  0
    4.1163   -3.0315    2.2368 H   0  0  0  0  0  0
    2.9930   -3.8001    1.1303 H   0  0  0  0  0  0
    5.0437    3.2896   -2.3658 H   0  0  0  0  0  0
    5.3395    4.2365   -4.6080 H   0  0  0  0  0  0
    3.6352    3.8522   -6.3538 H   0  0  0  0  0  0
    1.6195    2.5139   -5.8571 H   0  0  0  0  0  0
    1.2950    1.5557   -3.6335 H   0  0  0  0  0  0
   -1.5494    2.2072   -3.7350 H   0  0  0  0  0  0
   -1.8485    3.4558   -5.8365 H   0  0  0  0  0  0
   -1.9469    5.9441   -5.7896 H   0  0  0  0  0  0
   -1.7365    7.1049   -3.5863 H   0  0  0  0  0  0
  1  6  2  0  0  0
  1  2  1  0  0  0
  1 30  1  0  0  0
  2 19  1  0  0  0
  2  3  2  0  0  0
  3  4  1  0  0  0
  3 31  1  0  0  0
  4  5  2  0  0  0
  4 32  1  0  0  0
  5  6  1  0  0  0
  5 33  1  0  0  0
  6  7  1  0  0  0
  7  8  1  0  0  0
  7 34  1  0  0  0
  7 35  1  0  0  0
  8  9  1  0  0  0
  8 10  1  0  0  0
  8 36  1  0  0  0
  9 16  1  0  0  0
  9 37  1  0  0  0
 10 11  2  0  0  0
 10 12  1  0  0  0
 12 13  1  0  0  0
 12 38  1  0  0  0
 13 14  1  0  0  0
 13 39  1  0  0  0
 13 40  1  0  0  0
 14 15  3  0  0  0
 16 17  2  0  0  0
 16 18  1  0  0  0
 18 20  2  0  0  0
 18 24  1  0  0  0
 19 25  2  0  0  0
 19 29  1  0  0  0
 20 21  1  0  0  0
 20 41  1  0  0  0
 21 22  2  0  0  0
 21 42  1  0  0  0
 22 23  1  0  0  0
 22 43  1  0  0  0
 23 24  2  0  0  0
 23 44  1  0  0  0
 24 45  1  0  0  0
 25 26  1  0  0  0
 25 46  1  0  0  0
 26 27  2  0  0  0
 26 47  1  0  0  0
 27 28  1  0  0  0
 27 48  1  0  0  0
 28 29  2  0  0  0
 28 49  1  0  0  0
M  END
> <chembl_id>
CHEMBL556434

> <chembl_pref_name>
None

> <i_m_ct_stereo_status>
1

> <s_m_source_file>
sdf/inactives_sanitized.sdf

> <i_m_source_file_index>
514

> <i_lp_mmshare_version>
49012

> <i_f3d_flags>
0

> <s_epik_input>
bjFbY0hdW2NIXVtjSF1bY0hdYzEtYzJbY0hdYyhbY0hdW2NIXVtjSF0yKVtDSDJdW0NAQEhdKEMoPU8pW05IXVtDSDJdQyNOKVtOSF1DKD1PKWMzW2NIXVtjSF1bY0hdW2NIXVtjSF0z

> <s_epik_cmdline>
J2VwaWtfcHl0aG9uJywgJy1waHQnLCAnMC41JywgJy1waCcsICc3LjUnLCAnLW50JywgJy1tYScsICcyMDAnLCAnLWltYWUnLCAnPGluZmlsZS5tYWU+JywgJy1vbWFlJywgJzxvdXRmaWxlLm1hZT4n

> <r_lp_tautomer_probability>
1

> <r_epik_Ionization_Penalty>
  0.0022

> <r_epik_Ionization_Penalty_Charging>
  0.0000

> <r_epik_Ionization_Penalty_Neutral>
  0.0022

> <r_epik_State_Penalty>
 -0.0000

> <r_epik_Charging_Adjusted_Penalty>
0

> <i_epik_Tot_Q>
0

> <i_epik_Tot_abs_Q>
0

> <s_lp_Force_Field>
OPLS3e

> <r_lp_Energy>
38.833765

> <b_lp_Chiralities_Consistent>
1

> <s_lp_Variant>
sdf/inactives_sanitized.sdf:514-1

$$$$
sdf/inactives_sanitized.sdf:515
                    3D
 Schrodinger Suite 2020-1.
 74 76  0  0  1  0            999 V2000
   -6.0876    4.4989    1.9412 N   0  0  0  0  0  0
   -5.2608    5.1508    1.1560 C   0  0  0  0  0  0
    1.1614   -1.0136   -3.1778 C   0  0  0  0  0  0
    1.4217   -1.4374   -1.6663 C   0  0  0  0  0  0
   -4.2069    4.3853    0.7698 O   0  0  0  0  0  0
   -4.4552    3.2048    1.3886 C   0  0  0  0  0  0
   -5.5603    3.2195    2.0900 N   0  0  0  0  0  0
   -1.0895    0.8439   -0.4938 C   0  0  0  0  0  0
    1.5261   -1.9724   -4.0521 N   0  0  0  0  0  0
   -3.4953    2.0553    1.1758 C   0  0  0  0  0  0
   -0.4052   -0.3593   -0.6084 N   0  0  0  0  0  0
    1.0667   -0.3940   -0.6075 C   0  0  1  0  0  0
   -3.3891    1.6250   -0.3116 C   0  0  1  0  0  0
   -2.4151    0.5859   -0.4557 O   0  0  0  0  0  0
    1.3767   -1.9034   -5.5109 C   0  0  1  0  0  0
    1.9302   -2.5323   -1.4039 O   0  0  0  0  0  0
    0.6795    0.0825   -3.4685 O   0  0  0  0  0  0
   -0.5900    1.9698   -0.4287 O   0  0  0  0  0  0
   -5.3548    6.5620    0.6739 C   0  0  0  0  0  0
    2.1032   -0.7317   -6.1857 C   0  0  0  0  0  0
   -4.7284    1.1511   -0.9470 C   0  0  0  0  0  0
    1.6575   -0.7479    0.7863 C   0  0  0  0  0  0
    1.7922   -3.2389   -6.1500 C   0  0  0  0  0  0
   -6.4286    7.3699    1.0659 C   0  0  0  0  0  0
   -4.3699    7.0862   -0.1715 C   0  0  0  0  0  0
    1.4745   -0.0415   -7.2274 C   0  0  0  0  0  0
    3.3752   -0.3305   -5.7575 C   0  0  0  0  0  0
   -5.3400   -0.0880   -0.2596 C   0  0  0  0  0  0
   -4.5842    0.9224   -2.4647 C   0  0  0  0  0  0
    1.3866    0.3146    1.8710 C   0  0  0  0  0  0
    2.0747   -0.0056    3.2093 C   0  0  0  0  0  0
    1.7988    1.0497    4.2887 C   0  0  0  0  0  0
   -6.5162    8.6857    0.6189 C   0  0  0  0  0  0
    4.0117    0.7462   -6.3686 C   0  0  0  0  0  0
    2.1115    1.0350   -7.8388 C   0  0  0  0  0  0
   -4.4572    8.4021   -0.6183 C   0  0  0  0  0  0
   -5.5298    9.1962   -0.2210 C   0  0  0  0  0  0
    3.3771    1.4241   -7.4065 C   0  0  0  0  0  0
    1.8795   -2.8430   -3.6822 H   0  0  0  0  0  0
   -2.5117    2.3536    1.5392 H   0  0  0  0  0  0
   -3.7749    1.1991    1.7902 H   0  0  0  0  0  0
   -0.9104   -1.2256   -0.4930 H   0  0  0  0  0  0
    1.4984    0.5605   -0.9204 H   0  0  0  0  0  0
   -3.0607    2.4937   -0.8868 H   0  0  0  0  0  0
    0.3056   -1.7889   -5.6943 H   0  0  0  0  0  0
   -5.4480    1.9637   -0.8362 H   0  0  0  0  0  0
    1.2533   -1.7023    1.1300 H   0  0  0  0  0  0
    2.7376   -0.8802    0.6957 H   0  0  0  0  0  0
    1.5861   -3.2459   -7.2210 H   0  0  0  0  0  0
    1.2478   -4.0756   -5.7103 H   0  0  0  0  0  0
    2.8575   -3.4318   -6.0158 H   0  0  0  0  0  0
   -7.1982    6.9834    1.7182 H   0  0  0  0  0  0
   -3.5328    6.4801   -0.4866 H   0  0  0  0  0  0
    0.4914   -0.3364   -7.5645 H   0  0  0  0  0  0
    3.8722   -0.8519   -4.9525 H   0  0  0  0  0  0
   -4.6706   -0.9475   -0.3094 H   0  0  0  0  0  0
   -6.2795   -0.3759   -0.7327 H   0  0  0  0  0  0
   -5.5611    0.1020    0.7905 H   0  0  0  0  0  0
   -3.9028    0.0995   -2.6851 H   0  0  0  0  0  0
   -4.1991    1.8127   -2.9635 H   0  0  0  0  0  0
   -5.5453    0.6853   -2.9222 H   0  0  0  0  0  0
    1.7247    1.2894    1.5162 H   0  0  0  0  0  0
    0.3126    0.4015    2.0398 H   0  0  0  0  0  0
    1.7412   -0.9798    3.5691 H   0  0  0  0  0  0
    3.1519   -0.0879    3.0580 H   0  0  0  0  0  0
    2.3013    0.7930    5.2215 H   0  0  0  0  0  0
    0.7319    1.1312    4.4991 H   0  0  0  0  0  0
    2.1555    2.0329    3.9805 H   0  0  0  0  0  0
   -7.3451    9.3076    0.9228 H   0  0  0  0  0  0
    4.9925    1.0550   -6.0383 H   0  0  0  0  0  0
    1.6257    1.5673   -8.6431 H   0  0  0  0  0  0
   -3.6958    8.8050   -1.2698 H   0  0  0  0  0  0
   -5.5972   10.2171   -0.5674 H   0  0  0  0  0  0
    3.8705    2.2600   -7.8800 H   0  0  0  0  0  0
  1  2  2  0  0  0
  1  7  1  0  0  0
  2  5  1  0  0  0
  2 19  1  0  0  0
  3  4  1  0  0  0
  3  9  1  0  0  0
  3 17  2  0  0  0
  4 12  1  0  0  0
  4 16  2  0  0  0
  5  6  1  0  0  0
  6  7  2  0  0  0
  6 10  1  0  0  0
  8 14  1  0  0  0
  8 11  1  0  0  0
  8 18  2  0  0  0
  9 15  1  0  0  0
  9 39  1  0  0  0
 10 13  1  0  0  0
 10 40  1  0  0  0
 10 41  1  0  0  0
 11 12  1  0  0  0
 11 42  1  0  0  0
 12 22  1  0  0  0
 12 43  1  0  0  0
 13 14  1  0  0  0
 13 21  1  0  0  0
 13 44  1  0  0  0
 15 20  1  0  0  0
 15 23  1  0  0  0
 15 45  1  0  0  0
 19 24  2  0  0  0
 19 25  1  0  0  0
 20 26  2  0  0  0
 20 27  1  0  0  0
 21 28  1  0  0  0
 21 29  1  0  0  0
 21 46  1  0  0  0
 22 30  1  0  0  0
 22 47  1  0  0  0
 22 48  1  0  0  0
 23 49  1  0  0  0
 23 50  1  0  0  0
 23 51  1  0  0  0
 24 33  1  0  0  0
 24 52  1  0  0  0
 25 36  2  0  0  0
 25 53  1  0  0  0
 26 35  1  0  0  0
 26 54  1  0  0  0
 27 34  2  0  0  0
 27 55  1  0  0  0
 28 56  1  0  0  0
 28 57  1  0  0  0
 28 58  1  0  0  0
 29 59  1  0  0  0
 29 60  1  0  0  0
 29 61  1  0  0  0
 30 31  1  0  0  0
 30 62  1  0  0  0
 30 63  1  0  0  0
 31 32  1  0  0  0
 31 64  1  0  0  0
 31 65  1  0  0  0
 32 66  1  0  0  0
 32 67  1  0  0  0
 32 68  1  0  0  0
 33 37  2  0  0  0
 33 69  1  0  0  0
 34 38  1  0  0  0
 34 70  1  0  0  0
 35 38  2  0  0  0
 35 71  1  0  0  0
 36 37  1  0  0  0
 36 72  1  0  0  0
 37 73  1  0  0  0
 38 74  1  0  0  0
M  END
> <chembl_id>
CHEMBL189604

> <chembl_pref_name>
None

> <i_m_ct_stereo_status>
1

> <s_m_source_file>
sdf/inactives_sanitized.sdf

> <i_m_source_file_index>
515

> <i_lp_mmshare_version>
49012

> <i_f3d_flags>
0

> <s_epik_input>
W2NIXTFbY0hdW2NIXVtjSF1bY0hdYzEtYzJubmMobzIpW0NIMl1bQ0BIXShbQ0hdKFtDSDNdKVtDSDNdKU9DKD1PKVtOSF1bQ0BASF0oW0NIMl1bQ0gyXVtDSDJdW0NIM10pQyg9TylDKD1PKVtOSF1bQ0BIXShbQ0gzXSljM1tjSF1bY0hdW2NIXVtjSF1bY0hdMw==

> <s_epik_cmdline>
J2VwaWtfcHl0aG9uJywgJy1waHQnLCAnMC41JywgJy1waCcsICc3LjUnLCAnLW50JywgJy1tYScsICcyMDAnLCAnLWltYWUnLCAnPGluZmlsZS5tYWU+JywgJy1vbWFlJywgJzxvdXRmaWxlLm1hZT4n

> <r_lp_tautomer_probability>
1

> <r_epik_Ionization_Penalty>
  0.0000

> <r_epik_Ionization_Penalty_Charging>
  0.0000

> <r_epik_Ionization_Penalty_Neutral>
  0.0000

> <r_epik_State_Penalty>
 -0.0000

> <r_epik_Charging_Adjusted_Penalty>
0

> <i_epik_Tot_Q>
0

> <i_epik_Tot_abs_Q>
0

> <s_epik_Chemistry_Notes>
This compound has an ester and may undergo hydrolysis at high or low pH.

> <s_lp_Force_Field>
OPLS3e

> <r_lp_Energy>
35.805898

> <b_lp_Chiralities_Consistent>
1

> <s_lp_Variant>
sdf/inactives_sanitized.sdf:515-1

$$$$
sdf/inactives_sanitized.sdf:516
                    3D
 Schrodinger Suite 2020-1.
 60 61  0  0  1  0            999 V2000
    2.4225   -0.0297    2.4751 C   0  0  0  0  0  0
    2.2010   -0.7177    1.2862 N   0  0  0  0  0  0
    0.0067    0.1112    0.3925 C   0  0  0  0  0  0
    1.5242   -0.0790    0.1434 C   0  0  2  0  0  0
    2.1521    1.1536    2.6975 O   0  0  0  0  0  0
   -0.6383   -0.7636    0.9741 O   0  0  0  0  0  0
    2.9813   -0.8719    3.3646 O   0  0  0  0  0  0
    1.7961   -0.9569   -1.1106 C   0  0  0  0  0  0
   -0.5303    1.2466   -0.0850 N   0  0  0  0  0  0
   -3.7217    2.4599    1.5710 N   0  0  0  0  0  0
   -4.2529    2.9459    2.7786 C   0  0  0  0  0  0
   -3.4641    3.2704    3.8941 C   0  0  0  0  0  0
    3.2877   -0.4391    4.6846 C   0  0  0  0  0  0
   -4.0532    3.7530    5.0667 C   0  0  0  0  0  0
    3.8500   -1.6006    5.4842 C   0  0  0  0  0  0
   -6.2310    3.5877    4.0281 C   0  0  0  0  0  0
    1.3832   -0.3430   -2.4720 C   0  0  0  0  0  0
   -1.9382    1.6104    0.0467 C   0  0  0  0  0  0
   -2.3203    2.0703    1.4650 C   0  0  0  0  0  0
   -5.6389    3.1115    2.8587 C   0  0  0  0  0  0
   -5.4403    3.9058    5.1311 C   0  0  0  0  0  0
   -3.1912    4.0864    6.2707 C   0  0  0  0  0  0
    5.1912   -1.5937    5.8750 C   0  0  0  0  0  0
    3.0220   -2.6719    5.8299 C   0  0  0  0  0  0
    1.5511   -1.3684   -3.6142 C   0  0  0  0  0  0
    2.1132    0.9851   -2.7682 C   0  0  0  0  0  0
    5.7047   -2.6596    6.6094 C   0  0  0  0  0  0
    3.5367   -3.7377    6.5634 C   0  0  0  0  0  0
    4.8755   -3.7266    6.9497 C   0  0  0  0  0  0
    2.3745   -1.7116    1.2508 H   0  0  0  0  0  0
    2.0012    0.8917   -0.0108 H   0  0  0  0  0  0
    2.8621   -1.1870   -1.1658 H   0  0  0  0  0  0
    1.2950   -1.9196   -0.9871 H   0  0  0  0  0  0
    0.0661    1.9073   -0.5621 H   0  0  0  0  0  0
   -4.3710    1.9807    0.9639 H   0  0  0  0  0  0
   -2.3910    3.1523    3.8653 H   0  0  0  0  0  0
    4.0081    0.3802    4.6553 H   0  0  0  0  0  0
    2.3928   -0.0633    5.1837 H   0  0  0  0  0  0
   -7.3030    3.7091    4.0793 H   0  0  0  0  0  0
    0.3166   -0.1214   -2.4260 H   0  0  0  0  0  0
   -2.1400    2.4155   -0.6610 H   0  0  0  0  0  0
   -2.5743    0.7811   -0.2705 H   0  0  0  0  0  0
   -1.6925    2.9076    1.7727 H   0  0  0  0  0  0
   -2.1380    1.2714    2.1854 H   0  0  0  0  0  0
   -6.2675    2.8703    2.0135 H   0  0  0  0  0  0
   -5.9080    4.2726    6.0332 H   0  0  0  0  0  0
   -3.7502    3.9732    7.2004 H   0  0  0  0  0  0
   -2.8186    5.1088    6.2037 H   0  0  0  0  0  0
   -2.3376    3.4102    6.3343 H   0  0  0  0  0  0
    5.8356   -0.7675    5.6109 H   0  0  0  0  0  0
    1.9842   -2.6795    5.5292 H   0  0  0  0  0  0
    2.3275   -1.0852   -4.3248 H   0  0  0  0  0  0
    0.6223   -1.4771   -4.1749 H   0  0  0  0  0  0
    1.8158   -2.3581   -3.2406 H   0  0  0  0  0  0
    2.4562    1.0565   -3.8003 H   0  0  0  0  0  0
    2.9883    1.1213   -2.1323 H   0  0  0  0  0  0
    1.4502    1.8337   -2.5969 H   0  0  0  0  0  0
    6.7412   -2.6592    6.9131 H   0  0  0  0  0  0
    2.9011   -4.5689    6.8314 H   0  0  0  0  0  0
    5.2747   -4.5535    7.5184 H   0  0  0  0  0  0
  1  2  1  0  0  0
  1  5  2  0  0  0
  1  7  1  0  0  0
  2  4  1  0  0  0
  2 30  1  0  0  0
  3  4  1  0  0  0
  3  6  2  0  0  0
  3  9  1  0  0  0
  4  8  1  0  0  0
  4 31  1  0  0  0
  7 13  1  0  0  0
  8 17  1  0  0  0
  8 32  1  0  0  0
  8 33  1  0  0  0
  9 18  1  0  0  0
  9 34  1  0  0  0
 10 19  1  0  0  0
 10 11  1  0  0  0
 10 35  1  0  0  0
 11 12  2  0  0  0
 11 20  1  0  0  0
 12 14  1  0  0  0
 12 36  1  0  0  0
 13 15  1  0  0  0
 13 37  1  0  0  0
 13 38  1  0  0  0
 14 22  1  0  0  0
 14 21  2  0  0  0
 15 23  2  0  0  0
 15 24  1  0  0  0
 16 20  2  0  0  0
 16 21  1  0  0  0
 16 39  1  0  0  0
 17 25  1  0  0  0
 17 26  1  0  0  0
 17 40  1  0  0  0
 18 19  1  0  0  0
 18 41  1  0  0  0
 18 42  1  0  0  0
 19 43  1  0  0  0
 19 44  1  0  0  0
 20 45  1  0  0  0
 21 46  1  0  0  0
 22 47  1  0  0  0
 22 48  1  0  0  0
 22 49  1  0  0  0
 23 27  1  0  0  0
 23 50  1  0  0  0
 24 28  2  0  0  0
 24 51  1  0  0  0
 25 52  1  0  0  0
 25 53  1  0  0  0
 25 54  1  0  0  0
 26 55  1  0  0  0
 26 56  1  0  0  0
 26 57  1  0  0  0
 27 29  2  0  0  0
 27 58  1  0  0  0
 28 29  1  0  0  0
 28 59  1  0  0  0
 29 60  1  0  0  0
M  END
> <chembl_id>
CHEMBL78288

> <chembl_pref_name>
None

> <i_m_ct_stereo_status>
1

> <s_m_source_file>
sdf/inactives_sanitized.sdf

> <i_m_source_file_index>
516

> <i_lp_mmshare_version>
49012

> <i_f3d_flags>
0

> <s_epik_input>
W2NIXTFbY0hdW2NIXVtjSF1bY0hdYzFbQ0gyXU9DKD1PKVtOSF1bQ0BASF0oW0NIMl1bQ0hdKFtDSDNdKVtDSDNdKUMoPU8pW05IXVtDSDJdW0NIMl1bTkhdYzJbY0hdYyhbQ0gzXSlbY0hdW2NIXVtjSF0y

> <s_epik_cmdline>
J2VwaWtfcHl0aG9uJywgJy1waHQnLCAnMC41JywgJy1waCcsICc3LjUnLCAnLW50JywgJy1tYScsICcyMDAnLCAnLWltYWUnLCAnPGluZmlsZS5tYWU+JywgJy1vbWFlJywgJzxvdXRmaWxlLm1hZT4n

> <r_lp_tautomer_probability>
1

> <r_epik_Ionization_Penalty>
  0.0003

> <r_epik_Ionization_Penalty_Charging>
  0.0000

> <r_epik_Ionization_Penalty_Neutral>
  0.0003

> <r_epik_State_Penalty>
 -0.0000

> <r_epik_Charging_Adjusted_Penalty>
0

> <i_epik_Tot_Q>
0

> <i_epik_Tot_abs_Q>
0

> <s_epik_Chemistry_Notes>
This compound has an ester and may undergo hydrolysis at high or low pH.

> <s_lp_Force_Field>
OPLS3e

> <r_lp_Energy>
24.539584

> <b_lp_Chiralities_Consistent>
1

> <s_lp_Variant>
sdf/inactives_sanitized.sdf:516-1

$$$$
sdf/inactives_sanitized.sdf:517
                    3D
 Schrodinger Suite 2020-1.
 48 50  0  0  1  0            999 V2000
   -1.9176    2.8327   -1.4881 C   0  0  2  0  0  0
   -3.3257    2.6962   -2.1198 C   0  0  0  0  0  0
   -0.4216    1.3507   -0.1656 C   0  0  0  0  0  0
   -1.3419    1.5364   -1.1273 N   0  0  0  0  0  0
   -3.8728    3.5689   -1.1862 N   0  0  0  0  0  0
    2.2903   -0.2848   -1.1539 C   0  0  0  0  0  0
    0.0966   -0.0913    0.0153 C   0  0  1  0  0  0
    1.5671   -0.1486    0.0247 N   0  0  0  0  0  0
   -2.6370    3.6296   -0.3702 C   0  0  0  0  0  0
   -0.0089    2.2436    0.5767 O   0  0  0  0  0  0
   -3.8055    2.0659   -3.0596 O   0  0  0  0  0  0
   -0.4678   -0.7652    1.2907 C   0  0  0  0  0  0
    1.8246   -0.3758   -2.2930 O   0  0  0  0  0  0
    3.6031   -0.3000   -0.8557 O   0  0  0  0  0  0
    4.5807   -0.4468   -1.8786 C   0  0  0  0  0  0
   -0.1419   -2.2435    1.4388 C   0  0  0  0  0  0
    5.9693   -0.3526   -1.2726 C   0  0  0  0  0  0
   -0.9096   -3.2090    0.7537 C   0  0  0  0  0  0
    1.0256   -2.6537    2.1180 C   0  0  0  0  0  0
    6.4540   -1.3938   -0.4768 C   0  0  0  0  0  0
    6.7590    0.7739   -1.5147 C   0  0  0  0  0  0
    1.3672   -3.9990    2.1620 C   0  0  0  0  0  0
    7.7286   -1.3073    0.0777 C   0  0  0  0  0  0
    8.0336    0.8595   -0.9602 C   0  0  0  0  0  0
   -0.5516   -4.5496    0.8103 C   0  0  0  0  0  0
    0.5785   -4.9430    1.5161 C   0  0  0  0  0  0
    8.5124   -0.1813   -0.1667 C   0  0  0  0  0  0
   -1.1818    3.3661   -2.0924 H   0  0  0  0  0  0
   -1.5742    0.7593   -1.7295 H   0  0  0  0  0  0
   -4.8316    3.6261   -0.8744 H   0  0  0  0  0  0
   -0.2831   -0.6989   -0.8115 H   0  0  0  0  0  0
    2.0545   -0.0541    0.9037 H   0  0  0  0  0  0
   -2.2834    4.6512   -0.2217 H   0  0  0  0  0  0
   -2.7557    3.1213    0.5895 H   0  0  0  0  0  0
   -0.1048   -0.2464    2.1801 H   0  0  0  0  0  0
   -1.5545   -0.6627    1.3128 H   0  0  0  0  0  0
    4.4699   -1.4114   -2.3770 H   0  0  0  0  0  0
    4.4547    0.3242   -2.6411 H   0  0  0  0  0  0
   -1.7775   -2.9094    0.1844 H   0  0  0  0  0  0
    1.6558   -1.9244    2.6059 H   0  0  0  0  0  0
    5.8445   -2.2657   -0.2873 H   0  0  0  0  0  0
    6.3880    1.5818   -2.1287 H   0  0  0  0  0  0
    2.2544   -4.3114    2.6928 H   0  0  0  0  0  0
    8.1077   -2.1091    0.6941 H   0  0  0  0  0  0
    8.6476    1.7287   -1.1447 H   0  0  0  0  0  0
   -1.1485   -5.2883    0.2958 H   0  0  0  0  0  0
    0.8527   -5.9870    1.5518 H   0  0  0  0  0  0
    9.5011   -0.1142    0.2630 H   0  0  0  0  0  0
  1  2  1  0  0  0
  1  4  1  0  0  0
  1  9  1  0  0  0
  1 28  1  0  0  0
  2 11  2  0  0  0
  2  5  1  0  0  0
  3  4  1  0  0  0
  3  7  1  0  0  0
  3 10  2  0  0  0
  4 29  1  0  0  0
  5  9  1  0  0  0
  5 30  1  0  0  0
  6  8  1  0  0  0
  6 13  2  0  0  0
  6 14  1  0  0  0
  7  8  1  0  0  0
  7 12  1  0  0  0
  7 31  1  0  0  0
  8 32  1  0  0  0
  9 33  1  0  0  0
  9 34  1  0  0  0
 12 16  1  0  0  0
 12 35  1  0  0  0
 12 36  1  0  0  0
 14 15  1  0  0  0
 15 17  1  0  0  0
 15 37  1  0  0  0
 15 38  1  0  0  0
 16 18  2  0  0  0
 16 19  1  0  0  0
 17 20  2  0  0  0
 17 21  1  0  0  0
 18 25  1  0  0  0
 18 39  1  0  0  0
 19 22  2  0  0  0
 19 40  1  0  0  0
 20 23  1  0  0  0
 20 41  1  0  0  0
 21 24  2  0  0  0
 21 42  1  0  0  0
 22 26  1  0  0  0
 22 43  1  0  0  0
 23 27  2  0  0  0
 23 44  1  0  0  0
 24 27  1  0  0  0
 24 45  1  0  0  0
 25 26  2  0  0  0
 25 46  1  0  0  0
 26 47  1  0  0  0
 27 48  1  0  0  0
M  END
> <chembl_id>
CHEMBL281518

> <chembl_pref_name>
None

> <i_m_ct_stereo_status>
1

> <s_m_source_file>
sdf/inactives_sanitized.sdf

> <i_m_source_file_index>
517

> <i_lp_mmshare_version>
49012

> <i_f3d_flags>
0

> <s_epik_input>
W2NIXTFbY0hdW2NIXVtjSF1bY0hdYzFbQ0gyXVtDQEBIXShDKD1PKVtOSF1bQ0BIXTJDKD1PKVtOSF1bQ0gyXTIpW05IXUMoPU8pT1tDSDJdYzNbY0hdW2NIXVtjSF1bY0hdW2NIXTM=

> <s_epik_cmdline>
J2VwaWtfcHl0aG9uJywgJy1waHQnLCAnMC41JywgJy1waCcsICc3LjUnLCAnLW50JywgJy1tYScsICcyMDAnLCAnLWltYWUnLCAnPGluZmlsZS5tYWU+JywgJy1vbWFlJywgJzxvdXRmaWxlLm1hZT4n

> <r_lp_tautomer_probability>
1

> <r_epik_Ionization_Penalty>
  0.0000

> <r_epik_Ionization_Penalty_Charging>
  0.0000

> <r_epik_Ionization_Penalty_Neutral>
  0.0000

> <r_epik_State_Penalty>
 -0.0000

> <r_epik_Charging_Adjusted_Penalty>
0

> <i_epik_Tot_Q>
0

> <i_epik_Tot_abs_Q>
0

> <s_epik_Chemistry_Notes>
This compound has an ester and may undergo hydrolysis at high or low pH.

> <s_lp_Force_Field>
OPLS3e

> <r_lp_Energy>
38.65772

> <b_lp_Chiralities_Consistent>
1

> <s_lp_Variant>
sdf/inactives_sanitized.sdf:517-1

$$$$
sdf/inactives_sanitized.sdf:518
                    3D
 Schrodinger Suite 2020-1.
 34 35  0  0  1  0            999 V2000
   -0.6377    1.2416    0.0458 C   0  0  0  0  0  0
    0.0244    0.0269   -0.0298 N   0  0  0  0  0  0
   -0.5387   -1.2377   -0.1671 C   0  0  0  0  0  0
   -1.9260   -1.1976   -0.0733 N   0  0  0  0  0  0
   -2.6974   -0.0347   -0.1381 N   0  0  0  0  0  0
   -2.0893    1.0882   -0.0566 C   0  0  0  0  0  0
    0.1135   -2.2773   -0.3167 O   0  0  0  0  0  0
   -2.9147    2.2774   -0.0789 C   0  0  0  0  0  0
   -3.6088    3.2038   -0.1034 N   0  0  0  0  0  0
   -0.0929    2.3411    0.1775 O   0  0  0  0  0  0
    1.5060    0.0861    0.0197 C   0  0  0  0  0  0
    2.0792   -0.0261    1.4463 C   0  0  0  0  0  0
    3.6105    0.0553    1.4699 C   0  0  0  0  0  0
   -2.6866   -2.3955   -0.0361 C   0  0  0  0  0  0
   -3.7548   -2.5898   -0.9273 C   0  0  0  0  0  0
   -4.5078   -3.7625   -0.8860 C   0  0  0  0  0  0
   -4.2076   -4.7534    0.0469 C   0  0  0  0  0  0
   -3.1527   -4.5768    0.9448 C   0  0  0  0  0  0
   -2.3980   -3.4008    0.9025 C   0  0  0  0  0  0
   -2.8372   -5.6587    1.9616 C   0  0  0  0  0  0
    1.9488   -0.6928   -0.6041 H   0  0  0  0  0  0
    1.8742    1.0055   -0.4398 H   0  0  0  0  0  0
    1.6744    0.7712    2.0714 H   0  0  0  0  0  0
    1.7694   -0.9704    1.8961 H   0  0  0  0  0  0
    3.9885   -0.0264    2.4893 H   0  0  0  0  0  0
    3.9629    1.0032    1.0615 H   0  0  0  0  0  0
    4.0587   -0.7491    0.8856 H   0  0  0  0  0  0
   -4.0023   -1.8367   -1.6618 H   0  0  0  0  0  0
   -5.3250   -3.9033   -1.5781 H   0  0  0  0  0  0
   -4.7977   -5.6583    0.0715 H   0  0  0  0  0  0
   -1.5879   -3.2658    1.6052 H   0  0  0  0  0  0
   -2.0193   -5.3760    2.6256 H   0  0  0  0  0  0
   -2.5670   -6.5853    1.4541 H   0  0  0  0  0  0
   -3.7159   -5.8669    2.5731 H   0  0  0  0  0  0
  1 10  2  0  0  0
  1  6  1  0  0  0
  1  2  1  0  0  0
  2  3  1  0  0  0
  2 11  1  0  0  0
  3  7  2  0  0  0
  3  4  1  0  0  0
  4 14  1  0  0  0
  4  5  1  0  0  0
  5  6  2  0  0  0
  6  8  1  0  0  0
  8  9  3  0  0  0
 11 12  1  0  0  0
 11 21  1  0  0  0
 11 22  1  0  0  0
 12 13  1  0  0  0
 12 23  1  0  0  0
 12 24  1  0  0  0
 13 25  1  0  0  0
 13 26  1  0  0  0
 13 27  1  0  0  0
 14 15  2  0  0  0
 14 19  1  0  0  0
 15 16  1  0  0  0
 15 28  1  0  0  0
 16 17  2  0  0  0
 16 29  1  0  0  0
 17 18  1  0  0  0
 17 30  1  0  0  0
 18 19  2  0  0  0
 18 20  1  0  0  0
 19 31  1  0  0  0
 20 32  1  0  0  0
 20 33  1  0  0  0
 20 34  1  0  0  0
M  END
> <chembl_id>
CHEMBL1078869

> <chembl_pref_name>
None

> <s_m_source_file>
sdf/inactives_sanitized.sdf

> <i_m_source_file_index>
518

> <i_lp_mmshare_version>
49012

> <i_m_ct_stereo_status>
1

> <i_f3d_flags>
0

> <s_epik_input>
W0NIM11bQ0gyXVtDSDJdbihjMT1PKWMoPU8pbihuYzFDI04pLWMyW2NIXVtjSF1bY0hdYyhbY0hdMilbQ0gzXQ==

> <s_epik_cmdline>
J2VwaWtfcHl0aG9uJywgJy1waHQnLCAnMC41JywgJy1waCcsICc3LjUnLCAnLW50JywgJy1tYScsICcyMDAnLCAnLWltYWUnLCAnPGluZmlsZS5tYWU+JywgJy1vbWFlJywgJzxvdXRmaWxlLm1hZT4n

> <r_lp_tautomer_probability>
1

> <r_epik_Ionization_Penalty>
  0.0000

> <r_epik_Ionization_Penalty_Charging>
  0.0000

> <r_epik_Ionization_Penalty_Neutral>
  0.0000

> <r_epik_State_Penalty>
 -0.0000

> <r_epik_Charging_Adjusted_Penalty>
1.76235455904074e-12

> <i_epik_Tot_Q>
0

> <i_epik_Tot_abs_Q>
0

> <s_lp_Force_Field>
OPLS3e

> <r_lp_Energy>
52.518333

> <b_lp_Chiralities_Consistent>
1

> <s_lp_Variant>
sdf/inactives_sanitized.sdf:518-1

$$$$
sdf/inactives_sanitized.sdf:519
                    3D
 Schrodinger Suite 2020-1.
 60 61  0  0  1  0            999 V2000
    6.7135    2.2826    2.1418 C   0  0  0  0  0  0
    5.9858    3.4827    2.0765 C   0  0  0  0  0  0
    6.6166    4.7032    2.3027 C   0  0  0  0  0  0
    7.9767    4.7348    2.5958 C   0  0  0  0  0  0
    8.7123    3.5554    2.6657 C   0  0  0  0  0  0
    8.0831    2.3340    2.4402 C   0  0  0  0  0  0
    6.0648    0.9503    1.9054 C   0  0  0  0  0  0
    6.6625   -0.1251    2.0050 O   0  0  0  0  0  0
    4.7483    1.0485    1.5431 O   0  0  0  0  0  0
    3.9068   -0.0873    1.2917 C   0  0  1  0  0  0
    3.6012   -0.8634    2.5934 C   0  0  0  0  0  0
    3.1915   -0.2630    3.5881 O   0  0  0  0  0  0
    3.8440   -2.1891    2.5635 N   0  0  0  0  0  0
    3.6723   -3.1751    3.6428 C   0  0  0  0  0  0
    4.1217   -4.5461    3.0930 C   0  0  0  0  0  0
    2.1884   -3.2834    4.0708 C   0  0  0  0  0  0
    4.5540   -2.8316    4.8694 C   0  0  0  0  0  0
    0.1576   -0.2625   -0.1001 C   0  0  0  0  0  0
   -0.3371    1.1735    0.1732 C   0  0  0  0  0  0
    1.6843   -0.4887   -0.0392 C   0  0  2  0  0  0
    2.6005    0.4592    0.6836 C   0  0  2  0  0  0
    2.4921    0.4375   -0.7183 O   0  0  0  0  0  0
   -1.8548    1.3362   -0.0244 C   0  0  0  0  0  0
   -2.3428    2.7711    0.2459 C   0  0  0  0  0  0
   -3.8607    2.9370    0.0520 C   0  0  0  0  0  0
   -4.3465    4.3723    0.3200 C   0  0  0  0  0  0
   -5.8599    4.5380    0.1267 C   0  0  0  0  0  0
    4.9284    3.4896    1.8534 H   0  0  0  0  0  0
    6.0516    5.6222    2.2516 H   0  0  0  0  0  0
    8.4650    5.6822    2.7707 H   0  0  0  0  0  0
    9.7674    3.5871    2.8941 H   0  0  0  0  0  0
    8.6747    1.4310    2.4999 H   0  0  0  0  0  0
    4.3807   -0.7409    0.5542 H   0  0  0  0  0  0
    4.1976   -2.5703    1.6982 H   0  0  0  0  0  0
    4.0143   -5.3339    3.8402 H   0  0  0  0  0  0
    5.1689   -4.5329    2.7864 H   0  0  0  0  0  0
    3.5335   -4.8441    2.2235 H   0  0  0  0  0  0
    1.5462   -3.5346    3.2254 H   0  0  0  0  0  0
    1.8153   -2.3517    4.4968 H   0  0  0  0  0  0
    2.0472   -4.0570    4.8267 H   0  0  0  0  0  0
    4.4892   -3.6044    5.6365 H   0  0  0  0  0  0
    4.2566   -1.8944    5.3403 H   0  0  0  0  0  0
    5.6048   -2.7361    4.5918 H   0  0  0  0  0  0
   -0.1848   -0.5687   -1.0893 H   0  0  0  0  0  0
   -0.3211   -0.9439    0.6041 H   0  0  0  0  0  0
   -0.0821    1.4587    1.1945 H   0  0  0  0  0  0
    0.1860    1.8698   -0.4842 H   0  0  0  0  0  0
    1.9775   -1.5321   -0.1614 H   0  0  0  0  0  0
    2.2012    1.3436    1.1812 H   0  0  0  0  0  0
   -2.1201    1.0513   -1.0439 H   0  0  0  0  0  0
   -2.3819    0.6443    0.6344 H   0  0  0  0  0  0
   -2.0746    3.0583    1.2639 H   0  0  0  0  0  0
   -1.8169    3.4617   -0.4152 H   0  0  0  0  0  0
   -4.1288    2.6488   -0.9657 H   0  0  0  0  0  0
   -4.3875    2.2481    0.7144 H   0  0  0  0  0  0
   -4.0829    4.6645    1.3376 H   0  0  0  0  0  0
   -3.8246    5.0657   -0.3410 H   0  0  0  0  0  0
   -6.1678    5.5642    0.3293 H   0  0  0  0  0  0
   -6.4189    3.8861    0.7990 H   0  0  0  0  0  0
   -6.1569    4.2995   -0.8953 H   0  0  0  0  0  0
  1  2  2  0  0  0
  1  6  1  0  0  0
  1  7  1  0  0  0
  2  3  1  0  0  0
  2 28  1  0  0  0
  3  4  2  0  0  0
  3 29  1  0  0  0
  4  5  1  0  0  0
  4 30  1  0  0  0
  5  6  2  0  0  0
  5 31  1  0  0  0
  6 32  1  0  0  0
  7  8  2  0  0  0
  7  9  1  0  0  0
  9 10  1  0  0  0
 10 21  1  0  0  0
 10 11  1  0  0  0
 10 33  1  0  0  0
 11 12  2  0  0  0
 11 13  1  0  0  0
 13 14  1  0  0  0
 13 34  1  0  0  0
 14 15  1  0  0  0
 14 16  1  0  0  0
 14 17  1  0  0  0
 15 35  1  0  0  0
 15 36  1  0  0  0
 15 37  1  0  0  0
 16 38  1  0  0  0
 16 39  1  0  0  0
 16 40  1  0  0  0
 17 41  1  0  0  0
 17 42  1  0  0  0
 17 43  1  0  0  0
 18 20  1  0  0  0
 18 19  1  0  0  0
 18 44  1  0  0  0
 18 45  1  0  0  0
 19 23  1  0  0  0
 19 46  1  0  0  0
 19 47  1  0  0  0
 20 21  1  0  0  0
 20 22  1  0  0  0
 20 48  1  0  0  0
 21 22  1  0  0  0
 21 49  1  0  0  0
 23 24  1  0  0  0
 23 50  1  0  0  0
 23 51  1  0  0  0
 24 25  1  0  0  0
 24 52  1  0  0  0
 24 53  1  0  0  0
 25 26  1  0  0  0
 25 54  1  0  0  0
 25 55  1  0  0  0
 26 27  1  0  0  0
 26 56  1  0  0  0
 26 57  1  0  0  0
 27 58  1  0  0  0
 27 59  1  0  0  0
 27 60  1  0  0  0
M  END
> <chembl_id>
CHEMBL4096825

> <chembl_pref_name>
None

> <i_m_ct_stereo_status>
1

> <s_m_source_file>
sdf/inactives_sanitized.sdf

> <i_m_source_file_index>
519

> <i_lp_mmshare_version>
49012

> <i_f3d_flags>
0

> <s_epik_input>
W2NIXTFbY0hdW2NIXVtjSF1bY0hdYzFDKD1PKU9bQ0BASF0oQyg9TylbTkhdQyhbQ0gzXSkoW0NIM10pW0NIM10pW0NAQEhdKE8yKVtDQEhdMltDSDJdW0NIMl1bQ0gyXVtDSDJdW0NIMl1bQ0gyXVtDSDNd

> <s_epik_cmdline>
J2VwaWtfcHl0aG9uJywgJy1waHQnLCAnMC41JywgJy1waCcsICc3LjUnLCAnLW50JywgJy1tYScsICcyMDAnLCAnLWltYWUnLCAnPGluZmlsZS5tYWU+JywgJy1vbWFlJywgJzxvdXRmaWxlLm1hZT4n

> <r_lp_tautomer_probability>
1

> <r_epik_Ionization_Penalty>
  0.0000

> <r_epik_Ionization_Penalty_Charging>
  0.0000

> <r_epik_Ionization_Penalty_Neutral>
  0.0000

> <r_epik_State_Penalty>
 -0.0000

> <r_epik_Charging_Adjusted_Penalty>
0

> <i_epik_Tot_Q>
0

> <i_epik_Tot_abs_Q>
0

> <s_epik_Chemistry_Notes>
This compound has an ester and may undergo hydrolysis at high or low pH.

> <s_lp_Force_Field>
OPLS3e

> <r_lp_Energy>
13.618831

> <b_lp_Chiralities_Consistent>
1

> <s_lp_Variant>
sdf/inactives_sanitized.sdf:519-1

$$$$
sdf/inactives_sanitized.sdf:520
                    3D
 Schrodinger Suite 2020-1.
 37 37  0  0  1  0            999 V2000
   -0.5512    1.0713   -0.0769 C   0  0  0  0  0  0
    0.1160   -0.1162   -0.3516 N   0  0  0  0  0  0
   -1.8852    0.8630   -0.2357 O   0  0  0  0  0  0
   -0.0353    2.1322    0.2809 O   0  0  0  0  0  0
   -2.9187    1.8198    0.0641 C   0  0  0  0  0  0
    1.5659   -0.2421   -0.1122 C   0  0  2  0  0  0
    1.4892   -1.6496   -2.1173 O   0  0  0  0  0  0
    2.1332   -1.1505   -1.1916 C   0  0  0  0  0  0
    1.8542   -0.8449    1.2898 C   0  0  0  0  0  0
    1.4176    0.0102    2.4691 C   0  0  0  0  0  0
   -2.7995    3.0818   -0.8258 C   0  0  0  0  0  0
   -2.9146    2.1962    1.5673 C   0  0  0  0  0  0
   -4.2311    1.0823   -0.2712 C   0  0  0  0  0  0
    2.1995    1.1142    2.8699 C   0  0  0  0  0  0
    0.1502   -0.1818    3.0612 C   0  0  0  0  0  0
   -0.2863    0.6755    4.0624 C   0  0  0  0  0  0
    1.7449    1.9600    3.8729 C   0  0  0  0  0  0
    0.5098    1.7385    4.4693 C   0  0  0  0  0  0
   -0.4232   -0.9594   -0.4836 H   0  0  0  0  0  0
    2.0592    0.7278   -0.2080 H   0  0  0  0  0  0
    3.2026   -1.3386   -1.0936 H   0  0  0  0  0  0
    1.3765   -1.8218    1.3903 H   0  0  0  0  0  0
    2.9257   -1.0209    1.4033 H   0  0  0  0  0  0
   -3.6616    3.7381   -0.7015 H   0  0  0  0  0  0
   -2.7402    2.8159   -1.8821 H   0  0  0  0  0  0
   -1.9130    3.6709   -0.5923 H   0  0  0  0  0  0
   -2.0220    2.7536    1.8513 H   0  0  0  0  0  0
   -2.9502    1.3067    2.1976 H   0  0  0  0  0  0
   -3.7754    2.8147    1.8244 H   0  0  0  0  0  0
   -5.1040    1.7092   -0.0839 H   0  0  0  0  0  0
   -4.3446    0.1757    0.3252 H   0  0  0  0  0  0
   -4.2631    0.7809   -1.3193 H   0  0  0  0  0  0
    3.1501    1.3077    2.3948 H   0  0  0  0  0  0
   -0.4877   -0.9893    2.7328 H   0  0  0  0  0  0
   -1.2532    0.5220    4.5183 H   0  0  0  0  0  0
    2.3491    2.7998    4.1829 H   0  0  0  0  0  0
    0.1612    2.4041    5.2450 H   0  0  0  0  0  0
  1  2  1  0  0  0
  1  3  1  0  0  0
  1  4  2  0  0  0
  2  6  1  0  0  0
  2 19  1  0  0  0
  3  5  1  0  0  0
  5 11  1  0  0  0
  5 12  1  0  0  0
  5 13  1  0  0  0
  6  8  1  0  0  0
  6  9  1  0  0  0
  6 20  1  0  0  0
  7  8  2  0  0  0
  8 21  1  0  0  0
  9 10  1  0  0  0
  9 22  1  0  0  0
  9 23  1  0  0  0
 10 14  2  0  0  0
 10 15  1  0  0  0
 11 24  1  0  0  0
 11 25  1  0  0  0
 11 26  1  0  0  0
 12 27  1  0  0  0
 12 28  1  0  0  0
 12 29  1  0  0  0
 13 30  1  0  0  0
 13 31  1  0  0  0
 13 32  1  0  0  0
 14 17  1  0  0  0
 14 33  1  0  0  0
 15 16  2  0  0  0
 15 34  1  0  0  0
 16 18  1  0  0  0
 16 35  1  0  0  0
 17 18  2  0  0  0
 17 36  1  0  0  0
 18 37  1  0  0  0
M  END
> <chembl_id>
CHEMBL94327

> <chembl_pref_name>
None

> <i_m_ct_stereo_status>
1

> <s_m_source_file>
sdf/inactives_sanitized.sdf

> <i_m_source_file_index>
520

> <i_lp_mmshare_version>
49012

> <i_f3d_flags>
0

> <s_epik_input>
W0NIM11DKFtDSDNdKShbQ0gzXSlPQyg9TylbTkhdW0NASF0oW0NIXT1PKVtDSDJdYzFbY0hdW2NIXVtjSF1bY0hdW2NIXTE=

> <s_epik_cmdline>
J2VwaWtfcHl0aG9uJywgJy1waHQnLCAnMC41JywgJy1waCcsICc3LjUnLCAnLW50JywgJy1tYScsICcyMDAnLCAnLWltYWUnLCAnPGluZmlsZS5tYWU+JywgJy1vbWFlJywgJzxvdXRmaWxlLm1hZT4n

> <r_lp_tautomer_probability>
1

> <r_epik_Ionization_Penalty>
  0.0026

> <r_epik_Ionization_Penalty_Charging>
  0.0000

> <r_epik_Ionization_Penalty_Neutral>
  0.0026

> <r_epik_State_Penalty>
 -0.0000

> <r_epik_Charging_Adjusted_Penalty>
0

> <i_epik_Tot_Q>
0

> <i_epik_Tot_abs_Q>
0

> <s_epik_Chemistry_Notes>
This compound has an ester and may undergo hydrolysis at high or low pH.

> <s_lp_Force_Field>
OPLS3e

> <r_lp_Energy>
16.197322

> <b_lp_Chiralities_Consistent>
1

> <s_lp_Variant>
sdf/inactives_sanitized.sdf:520-1

$$$$
sdf/inactives_sanitized.sdf:521
                    3D
 Schrodinger Suite 2020-1.
 36 38  0  0  1  0            999 V2000
   -4.9355    1.0094   -0.6037 N   0  0  0  0  0  0
   -4.3556   -0.0561    0.0194 C   0  0  0  0  0  0
   -5.0985   -1.0712    0.6462 C   0  0  0  0  0  0
   -6.2868    1.1208   -0.6466 C   0  0  0  0  0  0
   -7.5389   -1.6979    1.0573 N   0  0  0  0  0  0
   -8.6931   -1.0513    0.6855 C   0  0  0  0  0  0
   -8.4869    0.0564    0.0203 N   0  0  0  0  0  0
   -7.1184    0.1538   -0.0575 C   0  0  0  0  0  0
   -6.4897   -0.9413    0.5887 C   0  0  0  0  0  0
   -6.7928    2.2973   -1.3377 C   0  0  0  0  0  0
   -7.1954    3.2330   -1.8868 N   0  0  0  0  0  0
   -2.8595   -0.0786    0.0064 C   0  0  0  0  0  0
   -2.1088    1.1063    0.0238 C   0  0  0  0  0  0
   -0.7072    1.0950    0.0039 C   0  0  0  0  0  0
   -0.0244   -0.1329   -0.0289 C   0  0  0  0  0  0
   -0.7703   -1.3221   -0.0455 C   0  0  0  0  0  0
   -2.1621   -1.2913   -0.0294 C   0  0  0  0  0  0
    0.0735    2.4143    0.0159 C   0  0  0  0  0  0
    0.8621    2.4611    1.0904 F   0  0  0  0  0  0
    0.8351    2.4964   -1.0759 F   0  0  0  0  0  0
   -0.7206    3.4867    0.0428 F   0  0  0  0  0  0
    1.3595   -0.1011   -0.0471 O   0  0  0  0  0  0
    2.0974   -1.3202   -0.0343 C   0  0  0  0  0  0
    3.5940   -0.9824   -0.0104 C   0  0  0  0  0  0
    4.3726   -2.1606    0.0117 O   0  0  0  0  0  0
   -4.6276   -1.9036    1.1480 H   0  0  0  0  0  0
   -7.5216   -2.5647    1.5752 H   0  0  0  0  0  0
   -9.6529   -1.4722    0.9482 H   0  0  0  0  0  0
   -2.6290    2.0527    0.0562 H   0  0  0  0  0  0
   -0.2877   -2.2869   -0.0762 H   0  0  0  0  0  0
   -2.6970   -2.2292   -0.0559 H   0  0  0  0  0  0
    1.8351   -1.9042    0.8502 H   0  0  0  0  0  0
    1.8612   -1.9061   -0.9246 H   0  0  0  0  0  0
    3.8625   -0.3804   -0.8792 H   0  0  0  0  0  0
    3.8316   -0.3690    0.8597 H   0  0  0  0  0  0
    5.3004   -1.9139    0.0281 H   0  0  0  0  0  0
  1  2  2  0  0  0
  1  4  1  0  0  0
  2  3  1  0  0  0
  2 12  1  0  0  0
  3  9  2  0  0  0
  3 26  1  0  0  0
  4  8  2  0  0  0
  4 10  1  0  0  0
  5  6  1  0  0  0
  5  9  1  0  0  0
  5 27  1  0  0  0
  6  7  2  0  0  0
  6 28  1  0  0  0
  7  8  1  0  0  0
  8  9  1  0  0  0
 10 11  3  0  0  0
 12 13  2  0  0  0
 12 17  1  0  0  0
 13 14  1  0  0  0
 13 29  1  0  0  0
 14 15  2  0  0  0
 14 18  1  0  0  0
 15 16  1  0  0  0
 15 22  1  0  0  0
 16 17  2  0  0  0
 16 30  1  0  0  0
 17 31  1  0  0  0
 18 19  1  0  0  0
 18 20  1  0  0  0
 18 21  1  0  0  0
 22 23  1  0  0  0
 23 24  1  0  0  0
 23 32  1  0  0  0
 23 33  1  0  0  0
 24 25  1  0  0  0
 24 34  1  0  0  0
 24 35  1  0  0  0
 25 36  1  0  0  0
M  END
> <chembl_id>
CHEMBL1209857

> <chembl_pref_name>
None

> <s_m_source_file>
sdf/inactives_sanitized.sdf

> <i_m_source_file_index>
521

> <i_lp_mmshare_version>
49012

> <i_m_ct_stereo_status>
1

> <i_f3d_flags>
0

> <s_epik_input>
bjFbY0hdW25IXWMoYzEyKVtjSF1jKG5jMkMjTiktYzNbY0hdYyhDKEYpKEYpRiljKFtjSF1bY0hdMylPW0NIMl1bQ0gyXVtPSF0=

> <s_epik_cmdline>
J2VwaWtfcHl0aG9uJywgJy1waHQnLCAnMC41JywgJy1waCcsICc3LjUnLCAnLW50JywgJy1tYScsICcyMDAnLCAnLWltYWUnLCAnPGluZmlsZS5tYWU+JywgJy1vbWFlJywgJzxvdXRmaWxlLm1hZT4n

> <r_lp_tautomer_probability>
1

> <r_epik_Ionization_Penalty>
  0.0350

> <r_epik_Ionization_Penalty_Charging>
  0.0000

> <r_epik_Ionization_Penalty_Neutral>
  0.0350

> <r_epik_State_Penalty>
 -0.0000

> <r_epik_Charging_Adjusted_Penalty>
1.09957420349954e-07

> <i_epik_Tot_Q>
0

> <i_epik_Tot_abs_Q>
0

> <s_lp_Force_Field>
OPLS3e

> <r_lp_Energy>
28.797822

> <b_lp_Chiralities_Consistent>
1

> <s_lp_Variant>
sdf/inactives_sanitized.sdf:521-1

$$$$
sdf/inactives_sanitized.sdf:522
                    3D
 Schrodinger Suite 2020-1.
 40 41  0  0  1  0            999 V2000
   -2.2825    3.7602   -0.3090 S   0  0  0  0  0  0
   -2.7918    2.1712   -0.2409 C   0  0  0  0  0  0
   -2.0098    1.0580   -0.1246 N   0  0  0  0  0  0
   -4.1140    1.9033   -0.3016 N   0  0  0  0  0  0
   -0.6595    1.0653   -0.0356 N   0  0  0  0  0  0
   -0.0687   -0.0674    0.0656 C   0  0  0  0  0  0
    1.4780   -0.1025    0.1857 C   0  0  1  0  0  0
   -0.7529   -1.4505    0.1055 C   0  0  0  0  0  0
    1.9897   -1.2590   -0.4821 O   0  0  0  0  0  0
    3.1282   -1.0386   -1.1797 C   0  0  0  0  0  0
    3.4733    0.4578   -1.2007 C   0  0  2  0  0  0
    2.2322    1.0512   -0.5196 C   0  0  0  0  0  0
    3.8390    0.9607   -2.6046 C   0  0  0  0  0  0
    5.3698    1.0940   -2.6572 C   0  0  0  0  0  0
    5.7510    1.1521   -1.2855 O   0  0  0  0  0  0
    4.7749    0.7538   -0.4368 C   0  0  0  0  0  0
    3.7155   -1.9679   -1.7315 O   0  0  0  0  0  0
    4.9781    0.7112    0.7754 O   0  0  0  0  0  0
    1.8606   -0.2347    1.6833 C   0  0  0  0  0  0
    6.0800   -0.1154   -3.3044 C   0  0  0  0  0  0
    5.8317    2.4243   -3.2869 C   0  0  0  0  0  0
   -2.4381    0.1441   -0.0991 H   0  0  0  0  0  0
   -4.7733    2.6641   -0.3815 H   0  0  0  0  0  0
   -4.4387    0.9480   -0.2627 H   0  0  0  0  0  0
   -0.4593   -2.0045    0.9970 H   0  0  0  0  0  0
   -0.4695   -2.0488   -0.7608 H   0  0  0  0  0  0
   -1.8416   -1.4089    0.1120 H   0  0  0  0  0  0
    2.4568    1.8664    0.1722 H   0  0  0  0  0  0
    1.6104    1.5035   -1.2953 H   0  0  0  0  0  0
    3.4586    0.3319   -3.4129 H   0  0  0  0  0  0
    3.3736    1.9370   -2.7556 H   0  0  0  0  0  0
    1.5675    0.6513    2.2486 H   0  0  0  0  0  0
    2.9322   -0.3641    1.8232 H   0  0  0  0  0  0
    1.3864   -1.0955    2.1569 H   0  0  0  0  0  0
    5.7728   -0.2460   -4.3425 H   0  0  0  0  0  0
    5.8703   -1.0456   -2.7786 H   0  0  0  0  0  0
    7.1631    0.0118   -3.2944 H   0  0  0  0  0  0
    5.5501    2.4807   -4.3388 H   0  0  0  0  0  0
    6.9150    2.5390   -3.2281 H   0  0  0  0  0  0
    5.3908    3.2843   -2.7805 H   0  0  0  0  0  0
  1  2  2  0  0  0
  2  3  1  0  0  0
  2  4  1  0  0  0
  3  5  1  0  0  0
  3 22  1  0  0  0
  4 23  1  0  0  0
  4 24  1  0  0  0
  5  6  2  0  0  0
  6  7  1  0  0  0
  6  8  1  0  0  0
  7  9  1  0  0  0
  7 12  1  0  0  0
  7 19  1  0  0  0
  8 25  1  0  0  0
  8 26  1  0  0  0
  8 27  1  0  0  0
  9 10  1  0  0  0
 10 11  1  0  0  0
 10 17  2  0  0  0
 11 12  1  0  0  0
 11 13  1  0  0  0
 11 16  1  0  0  0
 12 28  1  0  0  0
 12 29  1  0  0  0
 13 14  1  0  0  0
 13 30  1  0  0  0
 13 31  1  0  0  0
 14 15  1  0  0  0
 14 20  1  0  0  0
 14 21  1  0  0  0
 15 16  1  0  0  0
 16 18  2  0  0  0
 19 32  1  0  0  0
 19 33  1  0  0  0
 19 34  1  0  0  0
 20 35  1  0  0  0
 20 36  1  0  0  0
 20 37  1  0  0  0
 21 38  1  0  0  0
 21 39  1  0  0  0
 21 40  1  0  0  0
M  END
> <chembl_id>
CHEMBL2316598

> <chembl_pref_name>
None

> <i_m_ct_stereo_status>
1

> <s_m_source_file>
sdf/inactives_sanitized.sdf

> <i_m_source_file_index>
522

> <i_lp_mmshare_version>
49012

> <i_f3d_flags>
0

> <s_epik_input>
Uz1DKFtOSDJdKVtOSF0vTj1DKFtDSDNdKS9bQ0BAXShbQ0gyXTEpKFtDSDNdKU9DKD1PKVtDQEBdMTJbQ0gyXUMoW0NIM10pKFtDSDNdKU9DMj1P

> <s_epik_cmdline>
J2VwaWtfcHl0aG9uJywgJy1waHQnLCAnMC41JywgJy1waCcsICc3LjUnLCAnLW50JywgJy1tYScsICcyMDAnLCAnLWltYWUnLCAnPGluZmlsZS5tYWU+JywgJy1vbWFlJywgJzxvdXRmaWxlLm1hZT4n

> <r_lp_tautomer_probability>
1

> <r_epik_Ionization_Penalty>
  0.0008

> <r_epik_Ionization_Penalty_Charging>
  0.0000

> <r_epik_Ionization_Penalty_Neutral>
  0.0008

> <r_epik_State_Penalty>
 -0.0000

> <r_epik_Charging_Adjusted_Penalty>
0

> <i_epik_Tot_Q>
0

> <i_epik_Tot_abs_Q>
0

> <s_epik_Chemistry_Notes>
This compound has an ester and may undergo hydrolysis at high or low pH. This compound has an imine and may undergo hydrolysis.

> <s_lp_Force_Field>
OPLS3e

> <r_lp_Energy>
19.160703

> <b_lp_Chiralities_Consistent>
1

> <s_lp_Variant>
sdf/inactives_sanitized.sdf:522-1

$$$$
sdf/inactives_sanitized.sdf:523
                    3D
 Schrodinger Suite 2020-1.
 43 45  0  0  1  0            999 V2000
   -2.7408   -3.3819   -1.4931 C   0  0  0  0  0  0
   -2.7780   -3.4873   -2.8804 C   0  0  0  0  0  0
   -2.0944   -2.5933   -3.7045 C   0  0  0  0  0  0
   -1.3623   -1.5807   -3.0743 C   0  0  0  0  0  0
   -1.3027   -1.4474   -1.6521 C   0  0  0  0  0  0
   -2.0136   -2.3713   -0.8675 C   0  0  0  0  0  0
   -0.5946   -0.5651   -3.5964 N   0  0  0  0  0  0
   -0.0619    0.1807   -2.5786 C   0  0  0  0  0  0
   -0.4634   -0.3147   -1.3473 C   0  0  0  0  0  0
   -0.0802    0.1909    0.0490 C   0  0  2  0  0  0
   -0.4299    1.6934    0.2452 C   0  0  0  0  0  0
    1.4273   -0.0918    0.3630 C   0  0  0  0  0  0
    0.1671    2.3214    1.1490 O   0  5  0  0  0  0
   -1.3273    2.1960   -0.4698 O   0  0  0  0  0  0
    1.8265   -1.5805    0.3821 C   0  0  0  0  0  0
    1.0002   -2.4442    0.8527 N   0  0  0  0  0  0
    3.2001   -1.8390   -0.1213 C   0  0  0  0  0  0
    4.2868   -1.1056    0.3758 C   0  0  0  0  0  0
    5.5762   -1.3413   -0.0941 C   0  0  0  0  0  0
    5.7886   -2.3121   -1.0688 C   0  0  0  0  0  0
    4.7220   -3.0468   -1.5786 C   0  0  0  0  0  0
    3.4336   -2.8093   -1.1072 C   0  0  0  0  0  0
    1.4356   -3.7234    0.9676 N   0  0  0  0  0  0
    0.7098   -4.7614    1.4764 C   0  0  0  0  0  0
    1.3685   -5.9406    1.4650 N   0  0  0  0  0  0
   -0.8444   -4.7076    2.0834 S   0  0  0  0  0  0
   -3.2847   -4.0946   -0.8903 H   0  0  0  0  0  0
   -3.3535   -4.2828   -3.3308 H   0  0  0  0  0  0
   -2.1333   -2.6863   -4.7799 H   0  0  0  0  0  0
   -1.9976   -2.3053    0.2100 H   0  0  0  0  0  0
   -0.4186   -0.3617   -4.5696 H   0  0  0  0  0  0
    0.5757    1.0203   -2.8142 H   0  0  0  0  0  0
   -0.6927   -0.3186    0.7942 H   0  0  0  0  0  0
    2.0457    0.4591   -0.3491 H   0  0  0  0  0  0
    1.6923    0.3192    1.3386 H   0  0  0  0  0  0
    4.1405   -0.3503    1.1352 H   0  0  0  0  0  0
    6.4076   -0.7735    0.2966 H   0  0  0  0  0  0
    6.7885   -2.4947   -1.4341 H   0  0  0  0  0  0
    4.8920   -3.7954   -2.3382 H   0  0  0  0  0  0
    2.6142   -3.3807   -1.5209 H   0  0  0  0  0  0
    2.3844   -3.8805    0.6593 H   0  0  0  0  0  0
    2.3116   -5.9888    1.1076 H   0  0  0  0  0  0
    0.9121   -6.7699    1.8169 H   0  0  0  0  0  0
  1  2  2  0  0  0
  1  6  1  0  0  0
  1 27  1  0  0  0
  2  3  1  0  0  0
  2 28  1  0  0  0
  3  4  2  0  0  0
  3 29  1  0  0  0
  4  5  1  0  0  0
  4  7  1  0  0  0
  5  6  2  0  0  0
  5  9  1  0  0  0
  6 30  1  0  0  0
  7  8  1  0  0  0
  7 31  1  0  0  0
  8  9  2  0  0  0
  8 32  1  0  0  0
  9 10  1  0  0  0
 10 11  1  0  0  0
 10 12  1  0  0  0
 10 33  1  0  0  0
 11 13  1  0  0  0
 11 14  2  0  0  0
 12 15  1  0  0  0
 12 34  1  0  0  0
 12 35  1  0  0  0
 15 16  2  0  0  0
 15 17  1  0  0  0
 16 23  1  0  0  0
 17 18  2  0  0  0
 17 22  1  0  0  0
 18 19  1  0  0  0
 18 36  1  0  0  0
 19 20  2  0  0  0
 19 37  1  0  0  0
 20 21  1  0  0  0
 20 38  1  0  0  0
 21 22  2  0  0  0
 21 39  1  0  0  0
 22 40  1  0  0  0
 23 24  1  0  0  0
 23 41  1  0  0  0
 24 25  1  0  0  0
 24 26  2  0  0  0
 25 42  1  0  0  0
 25 43  1  0  0  0
M  CHG  1  13  -1
M  END
> <chembl_id>
CHEMBL3706634

> <chembl_pref_name>
None

> <s_m_source_file>
sdf/inactives_sanitized.sdf

> <i_m_source_file_index>
523

> <i_lp_mmshare_version>
49012

> <i_m_ct_stereo_status>
1

> <i_f3d_flags>
0

> <s_epik_input>
W2NIXTFbY0hdW2NIXVtjSF1jKGMxMiljKFtjSF1bbkhdMilbQ0BIXShDKD1PKVtPSF0pW0NIMl0vQyg9Ti9bTkhdQyg9UylbTkgyXSljM1tjSF1bY0hdW2NIXVtjSF1bY0hdMw==

> <s_epik_cmdline>
J2VwaWtfcHl0aG9uJywgJy1waHQnLCAnMC41JywgJy1waCcsICc3LjUnLCAnLW50JywgJy1tYScsICcyMDAnLCAnLWltYWUnLCAnPGluZmlsZS5tYWU+JywgJy1vbWFlJywgJzxvdXRmaWxlLm1hZT4n

> <r_lp_tautomer_probability>
1

> <r_epik_Ionization_Penalty>
  0.0001

> <r_epik_Ionization_Penalty_Charging>
  0.0000

> <r_epik_Ionization_Penalty_Neutral>
  0.0000

> <r_epik_State_Penalty>
 -0.0000

> <r_epik_Charging_Adjusted_Penalty>
3.86245129398541e-05

> <i_epik_Tot_Q>
-1

> <i_epik_Tot_abs_Q>
1

> <s_epik_Chemistry_Notes>
This compound has an imine and may undergo hydrolysis.

> <s_lp_Force_Field>
OPLS3e

> <r_lp_Energy>
59.094518

> <b_lp_Chiralities_Consistent>
1

> <s_lp_Variant>
sdf/inactives_sanitized.sdf:523-1

$$$$
sdf/inactives_sanitized.sdf:524
                    3D
 Schrodinger Suite 2020-1.
 68 70  0  0  1  0            999 V2000
   -3.2357    1.6102    0.7953 N   0  0  2  0  0  0
   -1.0648    0.6071    0.0380 C   0  0  0  0  0  0
   -0.1870   -0.2862    0.5336 N   0  0  0  0  0  0
   -2.5628    0.3544    0.3598 C   0  0  2  0  0  0
   -2.7039    2.1170    2.0811 C   0  0  0  0  0  0
   -3.1421    3.5503    2.4557 C   0  0  0  0  0  0
    1.5898   -0.8208   -1.0705 C   0  0  0  0  0  0
    1.2640   -0.2729    0.3150 C   0  0  2  0  0  0
    2.0496   -0.0807   -2.0982 C   0  0  0  0  0  0
   -0.7216    1.5694   -0.6526 O   0  0  0  0  0  0
   -3.7583    3.7071    3.5110 O   0  0  0  0  0  0
   -2.8986    4.6618    1.4823 C   0  0  0  0  0  0
    2.3864   -0.5631   -3.4536 C   0  0  0  0  0  0
    2.0320   -0.9961    1.4648 C   0  0  2  0  0  0
   -4.6982    1.4258    0.9066 C   0  0  0  0  0  0
    3.0110   -1.3871   -6.0530 C   0  0  0  0  0  0
    2.5770    0.3801   -4.4682 C   0  0  0  0  0  0
    2.5080   -1.9262   -3.7544 C   0  0  0  0  0  0
    2.8188   -2.3359   -5.0484 C   0  0  0  0  0  0
    2.8875   -0.0278   -5.7627 C   0  0  0  0  0  0
   -3.1906   -0.2746   -0.9190 C   0  0  0  0  0  0
   -1.8473    4.5988    0.5581 C   0  0  0  0  0  0
   -3.7005    5.8107    1.5302 C   0  0  0  0  0  0
    1.6575   -0.4455    2.8709 C   0  0  0  0  0  0
    3.5637   -0.9633    1.2404 C   0  0  0  0  0  0
    3.3426   -1.8420   -7.4628 C   0  0  0  0  0  0
   -5.3441    0.8790   -0.3792 C   0  0  0  0  0  0
    2.2473   -1.2291    4.0557 C   0  0  0  0  0  0
   -4.7087   -0.4459   -0.8057 C   0  0  0  0  0  0
   -3.4752    6.8633    0.6467 C   0  0  0  0  0  0
   -1.6222    5.6511   -0.3252 C   0  0  0  0  0  0
   -2.4393    6.7774   -0.2797 C   0  0  0  0  0  0
   -0.5510   -1.0881    1.0268 H   0  0  0  0  0  0
   -2.5969   -0.3784    1.1708 H   0  0  0  0  0  0
   -2.9918    1.4332    2.8817 H   0  0  0  0  0  0
   -1.6145    2.1087    2.0802 H   0  0  0  0  0  0
    1.4185   -1.8794   -1.1959 H   0  0  0  0  0  0
    1.5922    0.7697    0.3534 H   0  0  0  0  0  0
    2.2011    0.9759   -1.9257 H   0  0  0  0  0  0
    1.7304   -2.0453    1.4417 H   0  0  0  0  0  0
   -4.9107    0.7545    1.7413 H   0  0  0  0  0  0
   -5.1748    2.3750    1.1547 H   0  0  0  0  0  0
    2.4825    1.4361   -4.2588 H   0  0  0  0  0  0
    2.3702   -2.6802   -2.9942 H   0  0  0  0  0  0
    2.9110   -3.3899   -5.2675 H   0  0  0  0  0  0
    3.0306    0.7140   -6.5351 H   0  0  0  0  0  0
   -2.9802    0.3460   -1.7936 H   0  0  0  0  0  0
   -2.7348   -1.2441   -1.1291 H   0  0  0  0  0  0
   -1.1882    3.7461    0.5205 H   0  0  0  0  0  0
   -4.5084    5.8952    2.2436 H   0  0  0  0  0  0
    1.9601    0.6001    2.9469 H   0  0  0  0  0  0
    0.5743   -0.4463    2.9954 H   0  0  0  0  0  0
    3.9477    0.0571    1.2739 H   0  0  0  0  0  0
    3.8425   -1.3877    0.2757 H   0  0  0  0  0  0
    4.0976   -1.5441    1.9920 H   0  0  0  0  0  0
    3.2819   -1.0247   -8.1832 H   0  0  0  0  0  0
    2.6417   -2.6142   -7.7823 H   0  0  0  0  0  0
    4.3440   -2.2721   -7.4966 H   0  0  0  0  0  0
   -6.4108    0.7293   -0.2094 H   0  0  0  0  0  0
   -5.2794    1.6242   -1.1737 H   0  0  0  0  0  0
    1.8551   -0.8502    4.9999 H   0  0  0  0  0  0
    3.3326   -1.1415    4.1022 H   0  0  0  0  0  0
    1.9946   -2.2881    3.9960 H   0  0  0  0  0  0
   -4.9393   -1.2200   -0.0722 H   0  0  0  0  0  0
   -5.1270   -0.7813   -1.7555 H   0  0  0  0  0  0
   -4.1003    7.7434    0.6811 H   0  0  0  0  0  0
   -0.8130    5.5952   -1.0384 H   0  0  0  0  0  0
   -2.2639    7.5944   -0.9638 H   0  0  0  0  0  0
  1  4  1  0  0  0
  1  5  1  0  0  0
  1 15  1  0  0  0
  2  4  1  0  0  0
  2  3  1  0  0  0
  2 10  2  0  0  0
  3  8  1  0  0  0
  3 33  1  0  0  0
  4 21  1  0  0  0
  4 34  1  0  0  0
  5  6  1  0  0  0
  5 35  1  0  0  0
  5 36  1  0  0  0
  6 11  2  0  0  0
  6 12  1  0  0  0
  7  8  1  0  0  0
  7  9  2  0  0  0
  7 37  1  0  0  0
  8 14  1  0  0  0
  8 38  1  0  0  0
  9 13  1  0  0  0
  9 39  1  0  0  0
 12 22  2  0  0  0
 12 23  1  0  0  0
 13 17  1  0  0  0
 13 18  2  0  0  0
 14 24  1  0  0  0
 14 25  1  0  0  0
 14 40  1  0  0  0
 15 27  1  0  0  0
 15 41  1  0  0  0
 15 42  1  0  0  0
 16 19  2  0  0  0
 16 26  1  0  0  0
 16 20  1  0  0  0
 17 20  2  0  0  0
 17 43  1  0  0  0
 18 19  1  0  0  0
 18 44  1  0  0  0
 19 45  1  0  0  0
 20 46  1  0  0  0
 21 29  1  0  0  0
 21 47  1  0  0  0
 21 48  1  0  0  0
 22 31  1  0  0  0
 22 49  1  0  0  0
 23 30  2  0  0  0
 23 50  1  0  0  0
 24 28  1  0  0  0
 24 51  1  0  0  0
 24 52  1  0  0  0
 25 53  1  0  0  0
 25 54  1  0  0  0
 25 55  1  0  0  0
 26 56  1  0  0  0
 26 57  1  0  0  0
 26 58  1  0  0  0
 27 29  1  0  0  0
 27 59  1  0  0  0
 27 60  1  0  0  0
 28 61  1  0  0  0
 28 62  1  0  0  0
 28 63  1  0  0  0
 29 64  1  0  0  0
 29 65  1  0  0  0
 30 32  1  0  0  0
 30 66  1  0  0  0
 31 32  2  0  0  0
 31 67  1  0  0  0
 32 68  1  0  0  0
M  END
> <chembl_id>
CHEMBL101237

> <chembl_pref_name>
None

> <i_m_ct_stereo_status>
1

> <s_m_source_file>
sdf/inactives_sanitized.sdf

> <i_m_source_file_index>
524

> <i_lp_mmshare_version>
49012

> <i_f3d_flags>
0

> <s_epik_input>
W2NIXTFbY0hdW2NIXVtjSF1bY0hdYzFDKD1PKVtDSDJdTjJbQ0BASF0oW0NIMl1bQ0gyXVtDSDJdW0NIMl0yKUMoPU8pW05IXVtDQEBIXShbQ0BASF0oW0NIM10pW0NIMl1bQ0gzXSkvW0NIXT1bQ0hdL2MzW2NIXVtjSF1jKFtDSDNdKVtjSF1bY0hdMw==

> <s_epik_cmdline>
J2VwaWtfcHl0aG9uJywgJy1waHQnLCAnMC41JywgJy1waCcsICc3LjUnLCAnLW50JywgJy1tYScsICcyMDAnLCAnLWltYWUnLCAnPGluZmlsZS5tYWU+JywgJy1vbWFlJywgJzxvdXRmaWxlLm1hZT4n

> <r_lp_tautomer_probability>
0.99990000499975

> <r_epik_Ionization_Penalty>
  0.0205

> <r_epik_Ionization_Penalty_Charging>
  0.0000

> <r_epik_Ionization_Penalty_Neutral>
  0.0205

> <r_epik_State_Penalty>
  0.0164

> <r_epik_Charging_Adjusted_Penalty>
0.0164325140040374

> <i_epik_Tot_Q>
0

> <i_epik_Tot_abs_Q>
0

> <s_lp_Force_Field>
OPLS3e

> <r_lp_Energy>
33.556861

> <b_lp_Chiralities_Consistent>
1

> <s_lp_Variant>
sdf/inactives_sanitized.sdf:524-1

$$$$
sdf/inactives_sanitized.sdf:525
                    3D
 Schrodinger Suite 2020-1.
 54 56  0  0  1  0            999 V2000
    5.2594   -1.0536   -2.2728 C   0  0  0  0  0  0
    3.8049   -0.6595   -2.4199 C   0  0  0  0  0  0
    4.2021   -2.1235   -2.3448 C   0  0  0  0  0  0
   -0.0569    1.6026   -3.9510 C   0  0  0  0  0  0
    0.6443    2.7661   -4.2582 C   0  0  0  0  0  0
    1.0010    3.6653   -3.2563 C   0  0  0  0  0  0
    0.6519    3.3995   -1.9349 C   0  0  0  0  0  0
   -0.0496    2.2332   -1.6149 C   0  0  0  0  0  0
   -0.4036    1.3355   -2.6300 C   0  0  0  0  0  0
   -0.4272    1.9628   -0.1542 C   0  0  2  0  0  0
   -0.0475    0.6205    0.3000 N   0  0  1  0  0  0
    1.4005    0.3258    0.4230 C   0  0  2  0  0  0
    1.9286   -0.4273   -0.8198 C   0  0  0  0  0  0
    3.1416   -0.0594   -1.2662 N   0  0  0  0  0  0
    1.2606   -1.3295   -1.3288 O   0  0  0  0  0  0
    3.3463   -0.1653   -3.7301 C   0  0  0  0  0  0
    2.9892    0.2214   -4.7604 N   0  0  0  0  0  0
    1.7299   -0.4359    1.7232 C   0  0  0  0  0  0
   -1.9296    2.2172    0.1284 C   0  0  0  0  0  0
   -2.2146    2.0583    1.4224 F   0  0  0  0  0  0
   -2.2743    3.4649   -0.1930 F   0  0  0  0  0  0
   -2.7260    1.3944   -0.5569 F   0  0  0  0  0  0
    1.7844    0.6880    3.2420 S   0  0  0  0  0  0
    2.2456   -0.4737    4.6626 C   0  0  0  0  0  0
    2.8921    1.6319    3.0598 O   0  0  0  0  0  0
    0.4296    1.1973    3.4815 O   0  0  0  0  0  0
    1.1635   -1.5063    4.9469 C   0  0  0  0  0  0
    1.2221   -2.7893    4.3841 C   0  0  0  0  0  0
    0.2162   -3.7196    4.6565 C   0  0  0  0  0  0
   -0.8475   -3.3758    5.4909 C   0  0  0  0  0  0
   -0.9082   -2.1021    6.0549 C   0  0  0  0  0  0
    0.0946   -1.1711    5.7848 C   0  0  0  0  0  0
    2.2473   -3.1374    3.5707 F   0  0  0  0  0  0
    0.2696   -4.9565    4.1118 F   0  0  0  0  0  0
    5.9276   -0.9218   -3.1243 H   0  0  0  0  0  0
    5.7621   -0.8858   -1.3197 H   0  0  0  0  0  0
    3.9746   -2.6917   -1.4421 H   0  0  0  0  0  0
    4.1353   -2.7330   -3.2464 H   0  0  0  0  0  0
   -0.3256    0.9078   -4.7330 H   0  0  0  0  0  0
    0.9169    2.9708   -5.2831 H   0  0  0  0  0  0
    1.5453    4.5647   -3.5039 H   0  0  0  0  0  0
    0.9289    4.1016   -1.1619 H   0  0  0  0  0  0
   -0.9442    0.4299   -2.3953 H   0  0  0  0  0  0
    0.1252    2.6634    0.4750 H   0  0  0  0  0  0
   -0.6157    0.2791    1.0626 H   0  0  0  0  0  0
    1.9642    1.2608    0.4744 H   0  0  0  0  0  0
    3.5996    0.7331   -0.8403 H   0  0  0  0  0  0
    0.9806   -1.2047    1.9151 H   0  0  0  0  0  0
    2.6808   -0.9679    1.6652 H   0  0  0  0  0  0
    3.1853   -0.9544    4.3905 H   0  0  0  0  0  0
    2.4415    0.1358    5.5452 H   0  0  0  0  0  0
   -1.6247   -4.0960    5.7005 H   0  0  0  0  0  0
   -1.7323   -1.8357    6.7002 H   0  0  0  0  0  0
    0.0362   -0.1856    6.2241 H   0  0  0  0  0  0
  1  2  1  0  0  0
  1  3  1  0  0  0
  1 35  1  0  0  0
  1 36  1  0  0  0
  2 14  1  0  0  0
  2 16  1  0  0  0
  2  3  1  0  0  0
  3 37  1  0  0  0
  3 38  1  0  0  0
  4  9  2  0  0  0
  4  5  1  0  0  0
  4 39  1  0  0  0
  5  6  2  0  0  0
  5 40  1  0  0  0
  6  7  1  0  0  0
  6 41  1  0  0  0
  7  8  2  0  0  0
  7 42  1  0  0  0
  8  9  1  0  0  0
  8 10  1  0  0  0
  9 43  1  0  0  0
 10 11  1  0  0  0
 10 19  1  0  0  0
 10 44  1  0  0  0
 11 12  1  0  0  0
 11 45  1  0  0  0
 12 13  1  0  0  0
 12 18  1  0  0  0
 12 46  1  0  0  0
 13 14  1  0  0  0
 13 15  2  0  0  0
 14 47  1  0  0  0
 16 17  3  0  0  0
 18 23  1  0  0  0
 18 48  1  0  0  0
 18 49  1  0  0  0
 19 20  1  0  0  0
 19 21  1  0  0  0
 19 22  1  0  0  0
 23 24  1  0  0  0
 23 25  2  0  0  0
 23 26  2  0  0  0
 24 27  1  0  0  0
 24 50  1  0  0  0
 24 51  1  0  0  0
 27 28  2  0  0  0
 27 32  1  0  0  0
 28 29  1  0  0  0
 28 33  1  0  0  0
 29 30  2  0  0  0
 29 34  1  0  0  0
 30 31  1  0  0  0
 30 52  1  0  0  0
 31 32  2  0  0  0
 31 53  1  0  0  0
 32 54  1  0  0  0
M  END
> <chembl_id>
CHEMBL398553

> <chembl_pref_name>
None

> <i_m_ct_stereo_status>
1

> <s_m_source_file>
sdf/inactives_sanitized.sdf

> <i_m_source_file_index>
525

> <i_lp_mmshare_version>
49012

> <i_f3d_flags>
0

> <s_epik_input>
W2NIXTFbY0hdW2NIXVtjSF1bY0hdYzFbQ0BASF0oQyhGKShGKUYpW05IXVtDQEhdKEMoPU8pW05IXUMyKEMjTilbQ0gyXVtDSDJdMilbQ0gyXVMoPU8pKD1PKVtDSDJdYzNjKEYpYyhGKVtjSF1bY0hdW2NIXTM=

> <s_epik_cmdline>
J2VwaWtfcHl0aG9uJywgJy1waHQnLCAnMC41JywgJy1waCcsICc3LjUnLCAnLW50JywgJy1tYScsICcyMDAnLCAnLWltYWUnLCAnPGluZmlsZS5tYWU+JywgJy1vbWFlJywgJzxvdXRmaWxlLm1hZT4n

> <r_lp_tautomer_probability>
1

> <r_epik_Ionization_Penalty>
  0.0002

> <r_epik_Ionization_Penalty_Charging>
  0.0000

> <r_epik_Ionization_Penalty_Neutral>
  0.0002

> <r_epik_State_Penalty>
 -0.0000

> <r_epik_Charging_Adjusted_Penalty>
0

> <i_epik_Tot_Q>
0

> <i_epik_Tot_abs_Q>
0

> <s_lp_Force_Field>
OPLS3e

> <r_lp_Energy>
29.512046

> <b_lp_Chiralities_Consistent>
1

> <s_lp_Variant>
sdf/inactives_sanitized.sdf:525-1

$$$$
sdf/inactives_sanitized.sdf:526
                    3D
 Schrodinger Suite 2020-1.
 75 77  0  0  1  0            999 V2000
    3.6231   -0.4689   -1.6095 C   0  0  0  0  0  0
    2.0813   -0.6850   -1.3002 C   0  0  0  0  0  0
   -6.6022    6.9306    2.1140 N   0  0  0  0  0  0
    4.0807   -1.3081   -2.5598 N   0  0  0  0  0  0
   -7.3144    7.9917    2.5762 C   0  0  0  0  0  0
   -0.6633    1.2005   -0.0419 C   0  0  0  0  0  0
    0.0870    0.0371   -0.1569 N   0  0  0  0  0  0
    1.5585    0.0549   -0.0642 C   0  0  1  0  0  0
   -7.0183    6.3577    0.9533 C   0  0  0  0  0  0
   -8.4078    8.5224    1.9694 N   0  0  0  0  0  0
    5.4495   -1.3367   -3.0908 C   0  0  1  0  0  0
    1.3963   -1.4067   -2.0359 O   0  0  0  0  0  0
    4.2888    0.3815   -1.0161 O   0  0  0  0  0  0
   -0.2301    2.3459    0.1073 O   0  0  0  0  0  0
   -8.1411    6.8395    0.2587 C   0  0  0  0  0  0
   -1.9672    0.8778   -0.1133 O   0  0  0  0  0  0
   -4.4192    1.3014   -0.0636 C   0  0  0  0  0  0
    6.5495   -1.5763   -2.0472 C   0  0  0  0  0  0
   -6.7877    8.7223    4.0469 Cl  0  0  0  0  0  0
   -8.8069    7.9344    0.8126 C   0  0  0  0  0  0
   -2.9756    1.8776    0.0014 C   0  0  0  0  0  0
   -6.2358    5.2924    0.5569 O   0  0  0  0  0  0
    2.0614   -0.6237    1.2419 C   0  0  0  0  0  0
   -4.4901   -0.8332   -0.4077 C   0  0  0  0  0  0
   -4.7066    0.4058   -1.2880 C   0  0  0  0  0  0
   -4.6433    0.0612    0.8312 C   0  0  0  0  0  0
   -5.4699    2.4193    0.1708 C   0  0  0  0  0  0
    5.5541   -2.3611   -4.2329 C   0  0  0  0  0  0
    6.3558   -2.4744   -0.9895 C   0  0  0  0  0  0
    7.7510   -0.8658   -2.1399 C   0  0  0  0  0  0
   -6.5609    4.6058   -0.6493 C   0  0  0  0  0  0
   -5.5085    3.5177   -0.9150 C   0  0  0  0  0  0
    1.5820    0.0338    2.5547 C   0  0  0  0  0  0
    2.1110    1.4639    2.7749 C   0  0  0  0  0  0
    1.6560    2.0690    4.1094 C   0  0  0  0  0  0
    7.3543   -2.6601   -0.0376 C   0  0  0  0  0  0
    8.7502   -1.0527   -1.1884 C   0  0  0  0  0  0
    8.5470   -1.9484   -0.1412 C   0  0  0  0  0  0
    3.4210   -1.9360   -2.9959 H   0  0  0  0  0  0
   -0.3841   -0.8547   -0.1989 H   0  0  0  0  0  0
    1.9324    1.0804   -0.1039 H   0  0  0  0  0  0
    5.6140   -0.3526   -3.5364 H   0  0  0  0  0  0
   -8.4894    6.3995   -0.6635 H   0  0  0  0  0  0
   -9.6757    8.3571    0.3293 H   0  0  0  0  0  0
   -2.8317    2.6061   -0.7974 H   0  0  0  0  0  0
   -2.8424    2.4098    0.9451 H   0  0  0  0  0  0
    1.7276   -1.6633    1.2571 H   0  0  0  0  0  0
    3.1518   -0.6639    1.2611 H   0  0  0  0  0  0
   -3.4954   -1.2700   -0.5092 H   0  0  0  0  0  0
   -5.2450   -1.6131   -0.5122 H   0  0  0  0  0  0
   -5.7292    0.4846   -1.6622 H   0  0  0  0  0  0
   -4.0112    0.5114   -2.1219 H   0  0  0  0  0  0
   -5.6404    0.0038    1.2718 H   0  0  0  0  0  0
   -3.9004   -0.0985    1.6143 H   0  0  0  0  0  0
   -6.4644    1.9745    0.2393 H   0  0  0  0  0  0
   -5.2900    2.8746    1.1461 H   0  0  0  0  0  0
    6.5303   -2.3143   -4.7170 H   0  0  0  0  0  0
    4.8031   -2.1769   -5.0023 H   0  0  0  0  0  0
    5.4119   -3.3802   -3.8702 H   0  0  0  0  0  0
    5.4328   -3.0289   -0.9033 H   0  0  0  0  0  0
    7.9122   -0.1667   -2.9477 H   0  0  0  0  0  0
   -7.5547    4.1592   -0.5797 H   0  0  0  0  0  0
   -6.5694    5.3048   -1.4878 H   0  0  0  0  0  0
   -5.7118    3.0619   -1.8848 H   0  0  0  0  0  0
   -4.5332    3.9961   -1.0061 H   0  0  0  0  0  0
    0.4919    0.0295    2.5957 H   0  0  0  0  0  0
    1.9069   -0.5905    3.3884 H   0  0  0  0  0  0
    3.2011    1.4601    2.7364 H   0  0  0  0  0  0
    1.7809    2.1164    1.9670 H   0  0  0  0  0  0
    2.0486    3.0788    4.2320 H   0  0  0  0  0  0
    2.0047    1.4737    4.9539 H   0  0  0  0  0  0
    0.5685    2.1279    4.1662 H   0  0  0  0  0  0
    7.2042   -3.3520    0.7781 H   0  0  0  0  0  0
    9.6775   -0.5036   -1.2606 H   0  0  0  0  0  0
    9.3213   -2.0915    0.5981 H   0  0  0  0  0  0
  1  2  1  0  0  0
  1  4  1  0  0  0
  1 13  2  0  0  0
  2  8  1  0  0  0
  2 12  2  0  0  0
  3  9  2  0  0  0
  3  5  1  0  0  0
  4 11  1  0  0  0
  4 39  1  0  0  0
  5 19  1  0  0  0
  5 10  2  0  0  0
  6  7  1  0  0  0
  6 14  2  0  0  0
  6 16  1  0  0  0
  7  8  1  0  0  0
  7 40  1  0  0  0
  8 23  1  0  0  0
  8 41  1  0  0  0
  9 22  1  0  0  0
  9 15  1  0  0  0
 10 20  1  0  0  0
 11 18  1  0  0  0
 11 28  1  0  0  0
 11 42  1  0  0  0
 15 20  2  0  0  0
 15 43  1  0  0  0
 16 21  1  0  0  0
 17 21  1  0  0  0
 17 25  1  0  0  0
 17 26  1  0  0  0
 17 27  1  0  0  0
 18 29  2  0  0  0
 18 30  1  0  0  0
 20 44  1  0  0  0
 21 45  1  0  0  0
 21 46  1  0  0  0
 22 31  1  0  0  0
 23 33  1  0  0  0
 23 47  1  0  0  0
 23 48  1  0  0  0
 24 26  1  0  0  0
 24 25  1  0  0  0
 24 49  1  0  0  0
 24 50  1  0  0  0
 25 51  1  0  0  0
 25 52  1  0  0  0
 26 53  1  0  0  0
 26 54  1  0  0  0
 27 32  1  0  0  0
 27 55  1  0  0  0
 27 56  1  0  0  0
 28 57  1  0  0  0
 28 58  1  0  0  0
 28 59  1  0  0  0
 29 36  1  0  0  0
 29 60  1  0  0  0
 30 37  2  0  0  0
 30 61  1  0  0  0
 31 32  1  0  0  0
 31 62  1  0  0  0
 31 63  1  0  0  0
 32 64  1  0  0  0
 32 65  1  0  0  0
 33 34  1  0  0  0
 33 66  1  0  0  0
 33 67  1  0  0  0
 34 35  1  0  0  0
 34 68  1  0  0  0
 34 69  1  0  0  0
 35 70  1  0  0  0
 35 71  1  0  0  0
 35 72  1  0  0  0
 36 38  2  0  0  0
 36 73  1  0  0  0
 37 38  1  0  0  0
 37 74  1  0  0  0
 38 75  1  0  0  0
M  END
> <chembl_id>
CHEMBL188518

> <chembl_pref_name>
None

> <i_m_ct_stereo_status>
1

> <s_m_source_file>
sdf/inactives_sanitized.sdf

> <i_m_source_file_index>
526

> <i_lp_mmshare_version>
49012

> <i_f3d_flags>
0

> <s_epik_input>
W2NIXTFbY0hdW2NIXVtjSF1bY0hdYzFbQ0BASF0oW0NIM10pW05IXUMoPU8pQyg9TylbQ0BIXShbQ0gyXVtDSDJdW0NIMl1bQ0gzXSlbTkhdQyg9TylPW0NIMl1DMihbQ0gyXVtDSDJdW0NIMl0yKVtDSDJdW0NIMl1bQ0gyXU9jKG5jM0NsKVtjSF1bY0hdbjM=

> <s_epik_cmdline>
J2VwaWtfcHl0aG9uJywgJy1waHQnLCAnMC41JywgJy1waCcsICc3LjUnLCAnLW50JywgJy1tYScsICcyMDAnLCAnLWltYWUnLCAnPGluZmlsZS5tYWU+JywgJy1vbWFlJywgJzxvdXRmaWxlLm1hZT4n

> <r_lp_tautomer_probability>
1

> <r_epik_Ionization_Penalty>
  0.0000

> <r_epik_Ionization_Penalty_Charging>
  0.0000

> <r_epik_Ionization_Penalty_Neutral>
  0.0000

> <r_epik_State_Penalty>
 -0.0000

> <r_epik_Charging_Adjusted_Penalty>
0

> <i_epik_Tot_Q>
0

> <i_epik_Tot_abs_Q>
0

> <s_epik_Chemistry_Notes>
This compound has an ester and may undergo hydrolysis at high or low pH.

> <s_lp_Force_Field>
OPLS3e

> <r_lp_Energy>
57.323083

> <b_lp_Chiralities_Consistent>
1

> <s_lp_Variant>
sdf/inactives_sanitized.sdf:526-1

$$$$
sdf/inactives_sanitized.sdf:527
                    3D
 Schrodinger Suite 2020-1.
 36 35  0  0  1  0            999 V2000
    0.1180    2.3655   -0.9416 C   0  0  0  0  0  0
   -0.4339    1.3737   -0.1313 N   0  0  0  0  0  0
   -0.5267    3.5352   -0.6840 O   0  0  0  0  0  0
    0.0590   -0.0207   -0.0660 C   0  0  1  0  0  0
    1.0288    2.2250   -1.7587 O   0  0  0  0  0  0
   -0.2182    4.8083   -1.2825 C   0  0  0  0  0  0
   -0.8193   -1.9407   -1.2438 O   0  0  0  0  0  0
   -0.5474   -0.7411   -1.2595 C   0  0  0  0  0  0
    1.6118   -0.2057    0.0982 C   0  0  2  0  0  0
   -0.4335    4.7809   -2.8162 C   0  0  0  0  0  0
    1.2219    5.2589   -0.9321 C   0  0  0  0  0  0
   -1.2259    5.7862   -0.6438 C   0  0  0  0  0  0
    2.0466   -1.6895    0.2312 C   0  0  0  0  0  0
    2.1563    0.6167    1.2887 C   0  0  0  0  0  0
    3.5676   -1.9045    0.2635 C   0  0  0  0  0  0
   -1.1879    1.6270    0.4905 H   0  0  0  0  0  0
   -0.4033   -0.4341    0.8321 H   0  0  0  0  0  0
   -0.7208   -0.1334   -2.1486 H   0  0  0  0  0  0
    2.1018    0.1715   -0.7994 H   0  0  0  0  0  0
   -0.3430    5.7785   -3.2477 H   0  0  0  0  0  0
   -1.4248    4.4033   -3.0698 H   0  0  0  0  0  0
    0.2921    4.1460   -3.3242 H   0  0  0  0  0  0
    1.9773    4.6234   -1.3944 H   0  0  0  0  0  0
    1.3941    5.2306    0.1447 H   0  0  0  0  0  0
    1.4118    6.2792   -1.2675 H   0  0  0  0  0  0
   -1.0879    6.8035   -1.0124 H   0  0  0  0  0  0
   -1.1223    5.8147    0.4420 H   0  0  0  0  0  0
   -2.2557    5.4967   -0.8588 H   0  0  0  0  0  0
    1.6057   -2.1157    1.1332 H   0  0  0  0  0  0
    1.6579   -2.2786   -0.5981 H   0  0  0  0  0  0
    1.7300    0.2730    2.2316 H   0  0  0  0  0  0
    1.9272    1.6772    1.1907 H   0  0  0  0  0  0
    3.2406    0.5436    1.3690 H   0  0  0  0  0  0
    3.8245   -2.9065   -0.0815 H   0  0  0  0  0  0
    3.9598   -1.7962    1.2751 H   0  0  0  0  0  0
    4.0889   -1.1933   -0.3779 H   0  0  0  0  0  0
  1  2  1  0  0  0
  1  3  1  0  0  0
  1  5  2  0  0  0
  2  4  1  0  0  0
  2 16  1  0  0  0
  3  6  1  0  0  0
  4  8  1  0  0  0
  4  9  1  0  0  0
  4 17  1  0  0  0
  6 10  1  0  0  0
  6 11  1  0  0  0
  6 12  1  0  0  0
  7  8  2  0  0  0
  8 18  1  0  0  0
  9 13  1  0  0  0
  9 14  1  0  0  0
  9 19  1  0  0  0
 10 20  1  0  0  0
 10 21  1  0  0  0
 10 22  1  0  0  0
 11 23  1  0  0  0
 11 24  1  0  0  0
 11 25  1  0  0  0
 12 26  1  0  0  0
 12 27  1  0  0  0
 12 28  1  0  0  0
 13 15  1  0  0  0
 13 29  1  0  0  0
 13 30  1  0  0  0
 14 31  1  0  0  0
 14 32  1  0  0  0
 14 33  1  0  0  0
 15 34  1  0  0  0
 15 35  1  0  0  0
 15 36  1  0  0  0
M  END
> <chembl_id>
CHEMBL319662

> <chembl_pref_name>
None

> <i_m_ct_stereo_status>
1

> <s_m_source_file>
sdf/inactives_sanitized.sdf

> <i_m_source_file_index>
527

> <i_lp_mmshare_version>
49012

> <i_f3d_flags>
0

> <s_epik_input>
W0NIM11DKFtDSDNdKShbQ0gzXSlPQyg9TylbTkhdW0NAQEhdKFtDSF09TylbQ0BASF0oW0NIM10pW0NIMl1bQ0gzXQ==

> <s_epik_cmdline>
J2VwaWtfcHl0aG9uJywgJy1waHQnLCAnMC41JywgJy1waCcsICc3LjUnLCAnLW50JywgJy1tYScsICcyMDAnLCAnLWltYWUnLCAnPGluZmlsZS5tYWU+JywgJy1vbWFlJywgJzxvdXRmaWxlLm1hZT4n

> <r_lp_tautomer_probability>
1

> <r_epik_Ionization_Penalty>
  0.0002

> <r_epik_Ionization_Penalty_Charging>
  0.0000

> <r_epik_Ionization_Penalty_Neutral>
  0.0002

> <r_epik_State_Penalty>
 -0.0000

> <r_epik_Charging_Adjusted_Penalty>
0

> <i_epik_Tot_Q>
0

> <i_epik_Tot_abs_Q>
0

> <s_epik_Chemistry_Notes>
This compound has an ester and may undergo hydrolysis at high or low pH.

> <s_lp_Force_Field>
OPLS3e

> <r_lp_Energy>
11.793895

> <b_lp_Chiralities_Consistent>
1

> <s_lp_Variant>
sdf/inactives_sanitized.sdf:527-1

$$$$
sdf/inactives_sanitized.sdf:528
                    3D
 Schrodinger Suite 2020-1.
 54 56  0  0  1  0            999 V2000
    2.2652    0.4403   -4.9819 C   0  0  0  0  0  0
    1.0829    0.9138   -4.1558 C   0  0  0  0  0  0
    0.8765   -0.0422   -5.3109 C   0  0  0  0  0  0
   -2.2636    3.6912   -2.3084 C   0  0  0  0  0  0
   -2.9972    2.8142   -3.1034 C   0  0  0  0  0  0
   -2.9780    1.4447   -2.8529 C   0  0  0  0  0  0
   -2.2186    0.9479   -1.7975 C   0  0  0  0  0  0
   -1.4720    1.8207   -0.9931 C   0  0  0  0  0  0
   -1.4999    3.1940   -1.2561 C   0  0  0  0  0  0
   -0.6175    1.3060    0.1726 C   0  0  2  0  0  0
    0.0159    0.0121   -0.1263 N   0  0  1  0  0  0
    1.4784    0.0635   -0.3938 C   0  0  2  0  0  0
    1.7720    0.6755   -1.7893 C   0  0  0  0  0  0
    0.9337    0.3905   -2.8023 N   0  0  0  0  0  0
    2.7734    1.3783   -1.9226 O   0  0  0  0  0  0
    0.6795    2.3207   -4.3287 C   0  0  0  0  0  0
    0.3644    3.4254   -4.4665 N   0  0  0  0  0  0
    2.0795   -1.3564   -0.2688 C   0  0  0  0  0  0
   -1.4241    1.1990    1.4915 C   0  0  0  0  0  0
   -0.6516    0.8017    2.5045 F   0  0  0  0  0  0
   -1.9421    2.3778    1.8389 F   0  0  0  0  0  0
   -2.4344    0.3316    1.3974 F   0  0  0  0  0  0
    3.9291   -1.3722    0.1382 S   0  0  0  0  0  0
    4.3459   -3.2110    0.3060 C   0  0  0  0  0  0
    4.6587   -0.8609   -1.0265 O   0  0  0  0  0  0
    4.1121   -0.7365    1.4474 O   0  0  0  0  0  0
    3.6541   -3.8626    1.4928 C   0  0  0  0  0  0
    2.4491   -4.5464    1.3108 C   0  0  0  0  0  0
    1.8180   -5.1432    2.3991 C   0  0  0  0  0  0
    2.3942   -5.0570    3.6649 C   0  0  0  0  0  0
    3.5974   -4.3789    3.8511 C   0  0  0  0  0  0
    4.2295   -3.7820    2.7633 C   0  0  0  0  0  0
    1.7810   -5.6369    4.7213 F   0  0  0  0  0  0
    2.7481    1.1448   -5.6597 H   0  0  0  0  0  0
    2.9723   -0.2637   -4.5414 H   0  0  0  0  0  0
    0.6265   -1.0828   -5.1016 H   0  0  0  0  0  0
    0.3947    0.3273   -6.2167 H   0  0  0  0  0  0
   -2.2813    4.7517   -2.5117 H   0  0  0  0  0  0
   -3.5856    3.2001   -3.9226 H   0  0  0  0  0  0
   -3.5512    0.7715   -3.4732 H   0  0  0  0  0  0
   -2.2145   -0.1153   -1.6070 H   0  0  0  0  0  0
   -0.9289    3.8793   -0.6467 H   0  0  0  0  0  0
    0.1702    2.0419    0.3474 H   0  0  0  0  0  0
   -0.1285   -0.5581    0.6953 H   0  0  0  0  0  0
    1.9508    0.6673    0.3841 H   0  0  0  0  0  0
    0.0896   -0.1263   -2.6015 H   0  0  0  0  0  0
    1.5715   -1.9320    0.5051 H   0  0  0  0  0  0
    1.9615   -1.9268   -1.1914 H   0  0  0  0  0  0
    4.0654   -3.6987   -0.6282 H   0  0  0  0  0  0
    5.4292   -3.2909    0.4038 H   0  0  0  0  0  0
    1.9996   -4.6143    0.3307 H   0  0  0  0  0  0
    0.8859   -5.6716    2.2623 H   0  0  0  0  0  0
    4.0383   -4.3158    4.8351 H   0  0  0  0  0  0
    5.1609   -3.2541    2.9098 H   0  0  0  0  0  0
  1  2  1  0  0  0
  1  3  1  0  0  0
  1 34  1  0  0  0
  1 35  1  0  0  0
  2 14  1  0  0  0
  2 16  1  0  0  0
  2  3  1  0  0  0
  3 36  1  0  0  0
  3 37  1  0  0  0
  4  9  2  0  0  0
  4  5  1  0  0  0
  4 38  1  0  0  0
  5  6  2  0  0  0
  5 39  1  0  0  0
  6  7  1  0  0  0
  6 40  1  0  0  0
  7  8  2  0  0  0
  7 41  1  0  0  0
  8  9  1  0  0  0
  8 10  1  0  0  0
  9 42  1  0  0  0
 10 11  1  0  0  0
 10 19  1  0  0  0
 10 43  1  0  0  0
 11 12  1  0  0  0
 11 44  1  0  0  0
 12 13  1  0  0  0
 12 18  1  0  0  0
 12 45  1  0  0  0
 13 14  1  0  0  0
 13 15  2  0  0  0
 14 46  1  0  0  0
 16 17  3  0  0  0
 18 23  1  0  0  0
 18 47  1  0  0  0
 18 48  1  0  0  0
 19 20  1  0  0  0
 19 21  1  0  0  0
 19 22  1  0  0  0
 23 24  1  0  0  0
 23 25  2  0  0  0
 23 26  2  0  0  0
 24 27  1  0  0  0
 24 49  1  0  0  0
 24 50  1  0  0  0
 27 28  2  0  0  0
 27 32  1  0  0  0
 28 29  1  0  0  0
 28 51  1  0  0  0
 29 30  2  0  0  0
 29 52  1  0  0  0
 30 31  1  0  0  0
 30 33  1  0  0  0
 31 32  2  0  0  0
 31 53  1  0  0  0
 32 54  1  0  0  0
M  END
> <chembl_id>
CHEMBL400728

> <chembl_pref_name>
None

> <i_m_ct_stereo_status>
1

> <s_m_source_file>
sdf/inactives_sanitized.sdf

> <i_m_source_file_index>
528

> <i_lp_mmshare_version>
49012

> <i_f3d_flags>
0

> <s_epik_input>
W2NIXTFbY0hdW2NIXVtjSF1bY0hdYzFbQ0BASF0oQyhGKShGKUYpW05IXVtDQEhdKEMoPU8pW05IXUMyKEMjTilbQ0gyXVtDSDJdMilbQ0gyXVMoPU8pKD1PKVtDSDJdYzNbY0hdW2NIXWMoRilbY0hdW2NIXTM=

> <s_epik_cmdline>
J2VwaWtfcHl0aG9uJywgJy1waHQnLCAnMC41JywgJy1waCcsICc3LjUnLCAnLW50JywgJy1tYScsICcyMDAnLCAnLWltYWUnLCAnPGluZmlsZS5tYWU+JywgJy1vbWFlJywgJzxvdXRmaWxlLm1hZT4n

> <r_lp_tautomer_probability>
1

> <r_epik_Ionization_Penalty>
  0.0002

> <r_epik_Ionization_Penalty_Charging>
  0.0000

> <r_epik_Ionization_Penalty_Neutral>
  0.0002

> <r_epik_State_Penalty>
 -0.0000

> <r_epik_Charging_Adjusted_Penalty>
0

> <i_epik_Tot_Q>
0

> <i_epik_Tot_abs_Q>
0

> <s_lp_Force_Field>
OPLS3e

> <r_lp_Energy>
29.456441

> <b_lp_Chiralities_Consistent>
1

> <s_lp_Variant>
sdf/inactives_sanitized.sdf:528-1

$$$$
sdf/inactives_sanitized.sdf:529
                    3D
 Schrodinger Suite 2020-1.
 54 56  0  0  1  0            999 V2000
    3.3633    2.6514   -4.0530 C   0  0  0  0  0  0
    2.8655    2.9405   -2.6480 C   0  0  0  0  0  0
    2.0695    3.4060   -3.8547 C   0  0  0  0  0  0
   -0.2907    4.3879   -0.4695 C   0  0  0  0  0  0
   -0.7542    4.6592   -1.7547 C   0  0  0  0  0  0
   -1.3309    3.6530   -2.5259 C   0  0  0  0  0  0
   -1.4395    2.3642   -2.0111 C   0  0  0  0  0  0
   -0.9730    2.0806   -0.7211 C   0  0  0  0  0  0
   -0.4031    3.1003    0.0481 C   0  0  0  0  0  0
   -1.0526    0.6605   -0.1461 C   0  0  2  0  0  0
   -0.2483   -0.2967   -0.9157 N   0  0  1  0  0  0
    1.2278   -0.1367   -0.9302 C   0  0  2  0  0  0
    1.6496    0.7668   -2.1123 C   0  0  0  0  0  0
    2.3667    1.8599   -1.7865 N   0  0  0  0  0  0
    1.3061    0.4665   -3.2563 O   0  0  0  0  0  0
    3.5795    3.9821   -1.8922 C   0  0  0  0  0  0
    4.1400    4.8006   -1.2964 N   0  0  0  0  0  0
    2.0262   -1.4688   -0.8980 C   0  0  0  0  0  0
   -2.5046    0.1320   -0.0043 C   0  0  0  0  0  0
   -2.5272   -1.0480    0.6182 F   0  0  0  0  0  0
   -3.2473    0.9671    0.7234 F   0  0  0  0  0  0
   -3.1208   -0.0311   -1.1765 F   0  0  0  0  0  0
    1.1637   -2.9678   -1.6767 S   0  0  0  0  0  0
    2.4556   -4.3401   -1.5389 C   0  0  0  0  0  0
    0.0232   -3.3335   -0.8294 O   0  0  0  0  0  0
    0.9506   -2.6869   -3.1002 O   0  0  0  0  0  0
    1.9650   -5.6382   -2.1659 C   0  0  0  0  0  0
    2.2327   -5.9180   -3.5125 C   0  0  0  0  0  0
    1.7772   -7.1054   -4.0865 C   0  0  0  0  0  0
    1.0522   -8.0194   -3.3227 C   0  0  0  0  0  0
    0.7821   -7.7463   -1.9822 C   0  0  0  0  0  0
    1.2361   -6.5605   -1.4035 C   0  0  0  0  0  0
    2.9319   -5.0412   -4.2701 F   0  0  0  0  0  0
   -0.6399    5.9083   -2.2594 F   0  0  0  0  0  0
    0.9623   -6.3107   -0.1020 F   0  0  0  0  0  0
    4.2309    3.1976   -4.4242 H   0  0  0  0  0  0
    3.3213    1.6361   -4.4472 H   0  0  0  0  0  0
    1.1321    2.9137   -4.1132 H   0  0  0  0  0  0
    2.0465    4.4713   -4.0862 H   0  0  0  0  0  0
    0.1574    5.1726    0.1220 H   0  0  0  0  0  0
   -1.6837    3.8687   -3.5236 H   0  0  0  0  0  0
   -1.8679    1.5852   -2.6242 H   0  0  0  0  0  0
   -0.0346    2.8961    1.0429 H   0  0  0  0  0  0
   -0.6363    0.6777    0.8629 H   0  0  0  0  0  0
   -0.5788   -1.2506   -0.8582 H   0  0  0  0  0  0
    1.5070    0.3702   -0.0029 H   0  0  0  0  0  0
    2.5773    1.9830   -0.8067 H   0  0  0  0  0  0
    2.9700   -1.3743   -1.4379 H   0  0  0  0  0  0
    2.3088   -1.7303    0.1219 H   0  0  0  0  0  0
    3.3610   -3.9784   -2.0269 H   0  0  0  0  0  0
    2.6796   -4.4665   -0.4793 H   0  0  0  0  0  0
    1.9853   -7.3164   -5.1252 H   0  0  0  0  0  0
    0.6997   -8.9374   -3.7695 H   0  0  0  0  0  0
    0.2189   -8.4535   -1.3911 H   0  0  0  0  0  0
  1  2  1  0  0  0
  1  3  1  0  0  0
  1 36  1  0  0  0
  1 37  1  0  0  0
  2 14  1  0  0  0
  2 16  1  0  0  0
  2  3  1  0  0  0
  3 38  1  0  0  0
  3 39  1  0  0  0
  4  9  2  0  0  0
  4  5  1  0  0  0
  4 40  1  0  0  0
  5  6  2  0  0  0
  5 34  1  0  0  0
  6  7  1  0  0  0
  6 41  1  0  0  0
  7  8  2  0  0  0
  7 42  1  0  0  0
  8 10  1  0  0  0
  8  9  1  0  0  0
  9 43  1  0  0  0
 10 11  1  0  0  0
 10 19  1  0  0  0
 10 44  1  0  0  0
 11 12  1  0  0  0
 11 45  1  0  0  0
 12 13  1  0  0  0
 12 18  1  0  0  0
 12 46  1  0  0  0
 13 14  1  0  0  0
 13 15  2  0  0  0
 14 47  1  0  0  0
 16 17  3  0  0  0
 18 23  1  0  0  0
 18 48  1  0  0  0
 18 49  1  0  0  0
 19 20  1  0  0  0
 19 21  1  0  0  0
 19 22  1  0  0  0
 23 24  1  0  0  0
 23 25  2  0  0  0
 23 26  2  0  0  0
 24 27  1  0  0  0
 24 50  1  0  0  0
 24 51  1  0  0  0
 27 28  2  0  0  0
 27 32  1  0  0  0
 28 29  1  0  0  0
 28 33  1  0  0  0
 29 30  2  0  0  0
 29 52  1  0  0  0
 30 31  1  0  0  0
 30 53  1  0  0  0
 31 32  2  0  0  0
 31 54  1  0  0  0
 32 35  1  0  0  0
M  END
> <chembl_id>
CHEMBL427883

> <chembl_pref_name>
None

> <i_m_ct_stereo_status>
1

> <s_m_source_file>
sdf/inactives_sanitized.sdf

> <i_m_source_file_index>
529

> <i_lp_mmshare_version>
49012

> <i_f3d_flags>
0

> <s_epik_input>
RmMxW2NIXVtjSF1jKFtjSF1bY0hdMSlbQ0BASF0oQyhGKShGKUYpW05IXVtDQEhdKEMoPU8pW05IXUMyKEMjTilbQ0gyXVtDSDJdMilbQ0gyXVMoPU8pKD1PKVtDSDJdYzNjKEYpW2NIXVtjSF1bY0hdYzNG

> <s_epik_cmdline>
J2VwaWtfcHl0aG9uJywgJy1waHQnLCAnMC41JywgJy1waCcsICc3LjUnLCAnLW50JywgJy1tYScsICcyMDAnLCAnLWltYWUnLCAnPGluZmlsZS5tYWU+JywgJy1vbWFlJywgJzxvdXRmaWxlLm1hZT4n

> <r_lp_tautomer_probability>
1

> <r_epik_Ionization_Penalty>
  0.0002

> <r_epik_Ionization_Penalty_Charging>
  0.0000

> <r_epik_Ionization_Penalty_Neutral>
  0.0002

> <r_epik_State_Penalty>
 -0.0000

> <r_epik_Charging_Adjusted_Penalty>
0

> <i_epik_Tot_Q>
0

> <i_epik_Tot_abs_Q>
0

> <s_lp_Force_Field>
OPLS3e

> <r_lp_Energy>
32.139803

> <b_lp_Chiralities_Consistent>
1

> <s_lp_Variant>
sdf/inactives_sanitized.sdf:529-1

$$$$
sdf/inactives_sanitized.sdf:530
                    3D
 Schrodinger Suite 2020-1.
 54 57  0  0  1  0            999 V2000
   -0.6703    1.2065    0.0725 N   0  0  0  0  0  0
   -0.0796   -0.0214    0.0413 C   0  0  0  0  0  0
   -0.8098   -1.2192   -0.0157 C   0  0  0  0  0  0
   -2.0227    1.3095    0.0640 C   0  0  0  0  0  0
   -3.2456   -2.0059   -0.0316 N   0  0  0  0  0  0
   -4.4027   -1.2585   -0.0028 C   0  0  0  0  0  0
   -4.2084    0.0344    0.0228 N   0  0  0  0  0  0
   -2.8428    0.1691    0.0246 C   0  0  0  0  0  0
   -2.2044   -1.0965   -0.0144 C   0  0  0  0  0  0
   -2.5430    2.6680    0.1059 C   0  0  0  0  0  0
   -2.9570    3.7481    0.1391 N   0  0  0  0  0  0
    1.4149   -0.0252    0.0646 C   0  0  0  0  0  0
    2.1594    0.9886   -0.5551 C   0  0  0  0  0  0
    3.5611    0.9895   -0.5420 C   0  0  0  0  0  0
    4.2488   -0.0499    0.1077 C   0  0  0  0  0  0
    3.5081   -1.0648    0.7340 C   0  0  0  0  0  0
    2.1162   -1.0493    0.7106 C   0  0  0  0  0  0
    4.3366    2.1158   -1.2350 C   0  0  0  0  0  0
    5.1064    2.7461   -0.3470 F   0  0  0  0  0  0
    5.1159    1.6050   -2.1890 F   0  0  0  0  0  0
    3.5373    3.0226   -1.8008 F   0  0  0  0  0  0
    5.6326   -0.0128    0.0968 O   0  0  0  0  0  0
    6.3754   -1.0799    0.6783 C   0  0  0  0  0  0
    7.8675   -0.8020    0.4742 C   0  0  0  0  0  0
   -3.1572   -3.4637   -0.0268 C   0  0  0  0  0  0
   -3.0337   -4.0611    1.3959 C   0  0  0  0  0  0
   -1.8402   -3.5888    2.1082 N   0  0  0  0  0  0
   -1.0557   -4.6792    2.6986 C   0  0  0  0  0  0
    0.1994   -4.1320    3.4137 C   0  0  0  0  0  0
   -0.1700   -3.1464    4.3733 O   0  0  0  0  0  0
   -0.8653   -2.0487    3.7906 C   0  0  0  0  0  0
   -2.1507   -2.5493    3.0994 C   0  0  0  0  0  0
   -0.3269   -2.1848   -0.0467 H   0  0  0  0  0  0
   -5.3624   -1.7548    0.0030 H   0  0  0  0  0  0
    1.6336    1.7854   -1.0610 H   0  0  0  0  0  0
    3.9951   -1.8783    1.2494 H   0  0  0  0  0  0
    1.5839   -1.8443    1.2119 H   0  0  0  0  0  0
    6.1600   -1.1586    1.7452 H   0  0  0  0  0  0
    6.1141   -2.0292    0.2071 H   0  0  0  0  0  0
    8.4751   -1.6014    0.8986 H   0  0  0  0  0  0
    8.1620    0.1318    0.9540 H   0  0  0  0  0  0
    8.1110   -0.7245   -0.5860 H   0  0  0  0  0  0
   -4.0464   -3.8609   -0.5185 H   0  0  0  0  0  0
   -2.3078   -3.7553   -0.6462 H   0  0  0  0  0  0
   -3.9429   -3.8702    1.9694 H   0  0  0  0  0  0
   -2.9984   -5.1469    1.2883 H   0  0  0  0  0  0
   -1.6753   -5.2520    3.3908 H   0  0  0  0  0  0
   -0.7567   -5.3731    1.9118 H   0  0  0  0  0  0
    0.7173   -4.9418    3.9278 H   0  0  0  0  0  0
    0.9087   -3.7161    2.6959 H   0  0  0  0  0  0
   -1.1183   -1.3372    4.5767 H   0  0  0  0  0  0
   -0.2219   -1.5178    3.0862 H   0  0  0  0  0  0
   -2.6557   -1.7116    2.6193 H   0  0  0  0  0  0
   -2.8559   -2.9378    3.8363 H   0  0  0  0  0  0
  1  4  2  0  0  0
  1  2  1  0  0  0
  2 12  1  0  0  0
  2  3  2  0  0  0
  3  9  1  0  0  0
  3 33  1  0  0  0
  4  8  1  0  0  0
  4 10  1  0  0  0
  5  6  1  0  0  0
  5  9  1  0  0  0
  5 25  1  0  0  0
  6  7  2  0  0  0
  6 34  1  0  0  0
  7  8  1  0  0  0
  8  9  2  0  0  0
 10 11  3  0  0  0
 12 17  1  0  0  0
 12 13  2  0  0  0
 13 14  1  0  0  0
 13 35  1  0  0  0
 14 18  1  0  0  0
 14 15  2  0  0  0
 15 16  1  0  0  0
 15 22  1  0  0  0
 16 17  2  0  0  0
 16 36  1  0  0  0
 17 37  1  0  0  0
 18 19  1  0  0  0
 18 20  1  0  0  0
 18 21  1  0  0  0
 22 23  1  0  0  0
 23 24  1  0  0  0
 23 38  1  0  0  0
 23 39  1  0  0  0
 24 40  1  0  0  0
 24 41  1  0  0  0
 24 42  1  0  0  0
 25 26  1  0  0  0
 25 43  1  0  0  0
 25 44  1  0  0  0
 26 27  1  0  0  0
 26 45  1  0  0  0
 26 46  1  0  0  0
 27 28  1  0  0  0
 27 32  1  0  0  0
 28 29  1  0  0  0
 28 47  1  0  0  0
 28 48  1  0  0  0
 29 30  1  0  0  0
 29 49  1  0  0  0
 29 50  1  0  0  0
 30 31  1  0  0  0
 31 32  1  0  0  0
 31 51  1  0  0  0
 31 52  1  0  0  0
 32 53  1  0  0  0
 32 54  1  0  0  0
M  END
> <chembl_id>
CHEMBL1208848

> <chembl_pref_name>
None

> <s_m_source_file>
sdf/inactives_sanitized.sdf

> <i_m_source_file_index>
530

> <i_lp_mmshare_version>
49012

> <i_m_ct_stereo_status>
1

> <i_f3d_flags>
0

> <s_epik_input>
W0NIM11bQ0gyXU9jKFtjSF1bY0hdMSljKEMoRikoRilGKVtjSF1jMS1jKG5jMkMjTilbY0hdYyhjMjMpbihbY0hdbjMpW0NIMl1bQ0gyXU40W0NIMl1bQ0gyXU9bQ0gyXVtDSDJdNA==

> <s_epik_cmdline>
J2VwaWtfcHl0aG9uJywgJy1waHQnLCAnMC41JywgJy1waCcsICc3LjUnLCAnLW50JywgJy1tYScsICcyMDAnLCAnLWltYWUnLCAnPGluZmlsZS5tYWU+JywgJy1vbWFlJywgJzxvdXRmaWxlLm1hZT4n

> <r_lp_tautomer_probability>
1

> <r_epik_Ionization_Penalty>
  0.0292

> <r_epik_Ionization_Penalty_Charging>
  0.0000

> <r_epik_Ionization_Penalty_Neutral>
  0.0292

> <r_epik_State_Penalty>
  0.0240

> <r_epik_Charging_Adjusted_Penalty>
0.0240152771896544

> <i_epik_Tot_Q>
0

> <i_epik_Tot_abs_Q>
0

> <s_lp_Force_Field>
OPLS3e

> <r_lp_Energy>
32.019623

> <b_lp_Chiralities_Consistent>
1

> <s_lp_Variant>
sdf/inactives_sanitized.sdf:530-1

$$$$
sdf/inactives_sanitized.sdf:531
                    3D
 Schrodinger Suite 2020-1.
 49 52  0  0  1  0            999 V2000
   -5.0068   -0.9593   -0.7494 N   0  0  0  0  0  0
   -4.3482    0.0100   -0.0531 C   0  0  0  0  0  0
   -5.0102    1.0296    0.6509 C   0  0  0  0  0  0
   -6.3624   -0.9624   -0.7928 C   0  0  0  0  0  0
   -7.3973    1.8124    1.1337 N   0  0  0  0  0  0
   -8.5943    1.2815    0.7060 C   0  0  0  0  0  0
   -8.4728    0.2125   -0.0374 N   0  0  0  0  0  0
   -7.1171    0.0182   -0.1271 C   0  0  0  0  0  0
   -6.4090    1.0120    0.5964 C   0  0  0  0  0  0
   -6.9574   -2.0400   -1.5692 C   0  0  0  0  0  0
   -7.4308   -2.8968   -2.1865 N   0  0  0  0  0  0
   -2.8560   -0.0803   -0.0697 C   0  0  0  0  0  0
   -2.0676    1.0776   -0.0537 C   0  0  0  0  0  0
   -0.6671    1.0187   -0.0660 C   0  0  0  0  0  0
   -0.0267   -0.2317   -0.0978 C   0  0  0  0  0  0
   -0.8106   -1.3954   -0.1171 C   0  0  0  0  0  0
   -2.2004   -1.3177   -0.1018 C   0  0  0  0  0  0
    0.1583    2.3103   -0.0420 C   0  0  0  0  0  0
    0.9258    2.3308    1.0484 F   0  0  0  0  0  0
    0.9442    2.3668   -1.1180 F   0  0  0  0  0  0
   -0.5996    3.4088   -0.0301 F   0  0  0  0  0  0
   -7.2183    3.0027    1.9469 C   0  0  0  0  0  0
    1.3563   -0.2465   -0.1195 O   0  0  0  0  0  0
    2.0560   -1.4811    0.0175 C   0  0  0  0  0  0
    3.5635   -1.2020    0.1430 C   0  0  0  0  0  0
    3.8965   -0.3342    1.2743 N   0  0  0  0  0  0
    4.1774    1.0883    1.1100 C   0  0  0  0  0  0
    4.2244    1.6150    2.5306 C   0  0  0  0  0  0
    4.4583    0.3869    3.3891 C   0  0  0  0  0  0
    4.0582   -0.8116    2.5298 C   0  0  0  0  0  0
    3.9237   -1.9667    2.9330 O   0  0  0  0  0  0
   -4.4742    1.7826    1.2099 H   0  0  0  0  0  0
   -9.5240    1.7513    0.9932 H   0  0  0  0  0  0
   -2.5559    2.0410   -0.0397 H   0  0  0  0  0  0
   -0.3592   -2.3753   -0.1463 H   0  0  0  0  0  0
   -2.7687   -2.2366   -0.1111 H   0  0  0  0  0  0
   -6.5857    2.7638    2.8025 H   0  0  0  0  0  0
   -8.1830    3.3657    2.3043 H   0  0  0  0  0  0
   -6.7366    3.7772    1.3490 H   0  0  0  0  0  0
    1.7141   -2.0190    0.9041 H   0  0  0  0  0  0
    1.8732   -2.1234   -0.8451 H   0  0  0  0  0  0
    4.1368   -2.1301    0.1637 H   0  0  0  0  0  0
    3.8803   -0.6492   -0.7423 H   0  0  0  0  0  0
    3.4088    1.5845    0.5163 H   0  0  0  0  0  0
    5.1360    1.2223    0.6074 H   0  0  0  0  0  0
    4.9787    2.3908    2.6659 H   0  0  0  0  0  0
    3.2583    2.0544    2.7860 H   0  0  0  0  0  0
    3.9021    0.4224    4.3265 H   0  0  0  0  0  0
    5.5167    0.2836    3.6318 H   0  0  0  0  0  0
  1  2  2  0  0  0
  1  4  1  0  0  0
  2 12  1  0  0  0
  2  3  1  0  0  0
  3  9  2  0  0  0
  3 32  1  0  0  0
  4  8  2  0  0  0
  4 10  1  0  0  0
  5  6  1  0  0  0
  5  9  1  0  0  0
  5 22  1  0  0  0
  6  7  2  0  0  0
  6 33  1  0  0  0
  7  8  1  0  0  0
  8  9  1  0  0  0
 10 11  3  0  0  0
 12 17  1  0  0  0
 12 13  2  0  0  0
 13 14  1  0  0  0
 13 34  1  0  0  0
 14 18  1  0  0  0
 14 15  2  0  0  0
 15 16  1  0  0  0
 15 23  1  0  0  0
 16 17  2  0  0  0
 16 35  1  0  0  0
 17 36  1  0  0  0
 18 19  1  0  0  0
 18 20  1  0  0  0
 18 21  1  0  0  0
 22 37  1  0  0  0
 22 38  1  0  0  0
 22 39  1  0  0  0
 23 24  1  0  0  0
 24 25  1  0  0  0
 24 40  1  0  0  0
 24 41  1  0  0  0
 25 26  1  0  0  0
 25 42  1  0  0  0
 25 43  1  0  0  0
 26 27  1  0  0  0
 26 30  1  0  0  0
 27 28  1  0  0  0
 27 44  1  0  0  0
 27 45  1  0  0  0
 28 29  1  0  0  0
 28 46  1  0  0  0
 28 47  1  0  0  0
 29 30  1  0  0  0
 29 48  1  0  0  0
 29 49  1  0  0  0
 30 31  2  0  0  0
M  END
> <chembl_id>
CHEMBL1209034

> <chembl_pref_name>
None

> <s_m_source_file>
sdf/inactives_sanitized.sdf

> <i_m_source_file_index>
531

> <i_lp_mmshare_version>
49012

> <i_m_ct_stereo_status>
1

> <i_f3d_flags>
0

> <s_epik_input>
bjFbY0hdbihbQ0gzXSljKGMxMilbY0hdYyhuYzJDI04pLWMzW2NIXWMoQyhGKShGKUYpYyhbY0hdW2NIXTMpT1tDSDJdW0NIMl1ONFtDSDJdW0NIMl1bQ0gyXUM0PU8=

> <s_epik_cmdline>
J2VwaWtfcHl0aG9uJywgJy1waHQnLCAnMC41JywgJy1waCcsICc3LjUnLCAnLW50JywgJy1tYScsICcyMDAnLCAnLWltYWUnLCAnPGluZmlsZS5tYWU+JywgJy1vbWFlJywgJzxvdXRmaWxlLm1hZT4n

> <r_lp_tautomer_probability>
1

> <r_epik_Ionization_Penalty>
  0.0000

> <r_epik_Ionization_Penalty_Charging>
  0.0000

> <r_epik_Ionization_Penalty_Neutral>
  0.0000

> <r_epik_State_Penalty>
 -0.0000

> <r_epik_Charging_Adjusted_Penalty>
2.10485508124941e-07

> <i_epik_Tot_Q>
0

> <i_epik_Tot_abs_Q>
0

> <s_lp_Force_Field>
OPLS3e

> <r_lp_Energy>
20.575388

> <b_lp_Chiralities_Consistent>
1

> <s_lp_Variant>
sdf/inactives_sanitized.sdf:531-1

$$$$
sdf/inactives_sanitized.sdf:532
                    3D
 Schrodinger Suite 2020-1.
 36 38  0  0  1  0            999 V2000
   -4.9128   -1.0084   -0.6259 N   0  0  0  0  0  0
   -4.3069    0.0243    0.0265 C   0  0  0  0  0  0
   -5.0216    1.0492    0.6689 C   0  0  0  0  0  0
   -6.2667   -1.0739   -0.6843 C   0  0  0  0  0  0
   -7.4444    1.7413    1.0785 N   0  0  0  0  0  0
   -8.6149    1.1395    0.6833 C   0  0  0  0  0  0
   -8.4378    0.0429   -0.0083 N   0  0  0  0  0  0
   -7.0724   -0.0950   -0.0785 C   0  0  0  0  0  0
   -6.4154    0.9645    0.5983 C   0  0  0  0  0  0
   -6.8044   -2.2165   -1.4078 C   0  0  0  0  0  0
   -7.2326   -3.1248   -1.9829 N   0  0  0  0  0  0
   -2.8126   -0.0012    0.0342 C   0  0  0  0  0  0
   -2.0750    1.1877   -0.0269 C   0  0  0  0  0  0
   -0.6721    1.1954   -0.0151 C   0  0  0  0  0  0
    0.0215   -0.0308    0.0622 C   0  0  0  0  0  0
   -0.7141   -1.2232    0.1207 C   0  0  0  0  0  0
   -2.1054   -1.2068    0.1050 C   0  0  0  0  0  0
    0.0744    2.5377   -0.0895 C   0  0  0  0  0  0
    0.8382    2.6943    0.9924 F   0  0  0  0  0  0
    0.8538    2.5628   -1.1716 F   0  0  0  0  0  0
   -0.7484    3.5863   -0.1588 F   0  0  0  0  0  0
    1.4312   -0.0361    0.0845 N   0  0  0  0  0  0
    2.2109   -1.2610   -0.0435 C   0  0  0  0  0  0
    3.7197   -1.0068    0.0387 C   0  0  0  0  0  0
   -4.5268    1.8531    1.1940 H   0  0  0  0  0  0
   -7.4042    2.5938    1.6187 H   0  0  0  0  0  0
   -9.5634    1.5819    0.9514 H   0  0  0  0  0  0
   -2.6098    2.1236   -0.0944 H   0  0  0  0  0  0
   -0.2236   -2.1830    0.1797 H   0  0  0  0  0  0
   -2.6346   -2.1475    0.1565 H   0  0  0  0  0  0
    1.8914    0.8247   -0.1761 H   0  0  0  0  0  0
    1.9077   -1.9706    0.7272 H   0  0  0  0  0  0
    1.9660   -1.7332   -0.9959 H   0  0  0  0  0  0
    4.2737   -1.9400   -0.0644 H   0  0  0  0  0  0
    3.9966   -0.5640    0.9961 H   0  0  0  0  0  0
    4.0537   -0.3367   -0.7544 H   0  0  0  0  0  0
  1  2  2  0  0  0
  1  4  1  0  0  0
  2  3  1  0  0  0
  2 12  1  0  0  0
  3  9  2  0  0  0
  3 25  1  0  0  0
  4  8  2  0  0  0
  4 10  1  0  0  0
  5  6  1  0  0  0
  5  9  1  0  0  0
  5 26  1  0  0  0
  6  7  2  0  0  0
  6 27  1  0  0  0
  7  8  1  0  0  0
  8  9  1  0  0  0
 10 11  3  0  0  0
 12 13  2  0  0  0
 12 17  1  0  0  0
 13 14  1  0  0  0
 13 28  1  0  0  0
 14 15  2  0  0  0
 14 18  1  0  0  0
 15 16  1  0  0  0
 15 22  1  0  0  0
 16 17  2  0  0  0
 16 29  1  0  0  0
 17 30  1  0  0  0
 18 19  1  0  0  0
 18 20  1  0  0  0
 18 21  1  0  0  0
 22 23  1  0  0  0
 22 31  1  0  0  0
 23 24  1  0  0  0
 23 32  1  0  0  0
 23 33  1  0  0  0
 24 34  1  0  0  0
 24 35  1  0  0  0
 24 36  1  0  0  0
M  END
> <chembl_id>
CHEMBL1208846

> <chembl_pref_name>
None

> <s_m_source_file>
sdf/inactives_sanitized.sdf

> <i_m_source_file_index>
532

> <i_lp_mmshare_version>
49012

> <i_m_ct_stereo_status>
1

> <i_f3d_flags>
0

> <s_epik_input>
bjFbY0hdW25IXWMoYzEyKVtjSF1jKG5jMkMjTiktYzNbY0hdYyhDKEYpKEYpRiljKFtjSF1bY0hdMylbTkhdW0NIMl1bQ0gzXQ==

> <s_epik_cmdline>
J2VwaWtfcHl0aG9uJywgJy1waHQnLCAnMC41JywgJy1waCcsICc3LjUnLCAnLW50JywgJy1tYScsICcyMDAnLCAnLWltYWUnLCAnPGluZmlsZS5tYWU+JywgJy1vbWFlJywgJzxvdXRmaWxlLm1hZT4n

> <r_lp_tautomer_probability>
1

> <r_epik_Ionization_Penalty>
  0.0457

> <r_epik_Ionization_Penalty_Charging>
  0.0000

> <r_epik_Ionization_Penalty_Neutral>
  0.0457

> <r_epik_State_Penalty>
 -0.0000

> <r_epik_Charging_Adjusted_Penalty>
9.8662176494056e-08

> <i_epik_Tot_Q>
0

> <i_epik_Tot_abs_Q>
0

> <s_lp_Force_Field>
OPLS3e

> <r_lp_Energy>
28.513089

> <b_lp_Chiralities_Consistent>
1

> <s_lp_Variant>
sdf/inactives_sanitized.sdf:532-1

$$$$
sdf/inactives_sanitized.sdf:533
                    3D
 Schrodinger Suite 2020-1.
 39 41  0  0  1  0            999 V2000
   -5.0357   -0.9976   -0.6275 N   0  0  0  0  0  0
   -4.3929    0.0238    0.0080 C   0  0  0  0  0  0
   -5.0730    1.0769    0.6432 C   0  0  0  0  0  0
   -6.3914   -1.0239   -0.6748 C   0  0  0  0  0  0
   -7.4702    1.8469    1.0611 N   0  0  0  0  0  0
   -8.6613    1.2754    0.6831 C   0  0  0  0  0  0
   -8.5227    0.1651    0.0047 N   0  0  0  0  0  0
   -7.1627   -0.0143   -0.0749 C   0  0  0  0  0  0
   -6.4691    1.0331    0.5835 C   0  0  0  0  0  0
   -6.9685   -2.1583   -1.3806 C   0  0  0  0  0  0
   -7.4279   -3.0602   -1.9418 N   0  0  0  0  0  0
   -2.8985   -0.0484    0.0049 C   0  0  0  0  0  0
   -2.1230    1.1185   -0.0182 C   0  0  0  0  0  0
   -0.7216    1.0761   -0.0152 C   0  0  0  0  0  0
   -0.0651   -0.1665    0.0073 C   0  0  0  0  0  0
   -0.8364   -1.3392    0.0263 C   0  0  0  0  0  0
   -2.2271   -1.2776    0.0258 C   0  0  0  0  0  0
    0.0876    2.3779   -0.0386 C   0  0  0  0  0  0
    0.8614    2.4465    1.0456 F   0  0  0  0  0  0
    0.8657    2.4052   -1.1213 F   0  0  0  0  0  0
   -0.6839    3.4667   -0.0610 F   0  0  0  0  0  0
    1.3192   -0.1646    0.0101 O   0  0  0  0  0  0
    2.0312   -1.3988    0.0142 C   0  0  0  0  0  0
    3.5367   -1.0963    0.0034 C   0  0  0  0  0  0
    4.3999   -2.3680    0.0005 C   0  0  0  0  0  0
    5.7735   -2.0428   -0.0066 O   0  0  0  0  0  0
   -4.5531    1.8730    1.1554 H   0  0  0  0  0  0
   -7.4001    2.7050    1.5891 H   0  0  0  0  0  0
   -9.5938    1.7498    0.9527 H   0  0  0  0  0  0
   -2.6220    2.0758   -0.0476 H   0  0  0  0  0  0
   -0.3753   -2.3147    0.0432 H   0  0  0  0  0  0
   -2.7840   -2.2033    0.0474 H   0  0  0  0  0  0
    1.7762   -1.9772    0.9043 H   0  0  0  0  0  0
    1.7660   -1.9881   -0.8658 H   0  0  0  0  0  0
    3.7732   -0.4935   -0.8749 H   0  0  0  0  0  0
    3.7846   -0.4885    0.8751 H   0  0  0  0  0  0
    4.1696   -2.9882    0.8676 H   0  0  0  0  0  0
    4.1604   -2.9901   -0.8629 H   0  0  0  0  0  0
    6.2812   -2.8577   -0.0066 H   0  0  0  0  0  0
  1  2  2  0  0  0
  1  4  1  0  0  0
  2 12  1  0  0  0
  2  3  1  0  0  0
  3  9  2  0  0  0
  3 27  1  0  0  0
  4  8  2  0  0  0
  4 10  1  0  0  0
  5  6  1  0  0  0
  5  9  1  0  0  0
  5 28  1  0  0  0
  6  7  2  0  0  0
  6 29  1  0  0  0
  7  8  1  0  0  0
  8  9  1  0  0  0
 10 11  3  0  0  0
 12 13  2  0  0  0
 12 17  1  0  0  0
 13 14  1  0  0  0
 13 30  1  0  0  0
 14 15  2  0  0  0
 14 18  1  0  0  0
 15 16  1  0  0  0
 15 22  1  0  0  0
 16 17  2  0  0  0
 16 31  1  0  0  0
 17 32  1  0  0  0
 18 19  1  0  0  0
 18 20  1  0  0  0
 18 21  1  0  0  0
 22 23  1  0  0  0
 23 24  1  0  0  0
 23 33  1  0  0  0
 23 34  1  0  0  0
 24 25  1  0  0  0
 24 35  1  0  0  0
 24 36  1  0  0  0
 25 26  1  0  0  0
 25 37  1  0  0  0
 25 38  1  0  0  0
 26 39  1  0  0  0
M  END
> <chembl_id>
CHEMBL1209859

> <chembl_pref_name>
None

> <s_m_source_file>
sdf/inactives_sanitized.sdf

> <i_m_source_file_index>
533

> <i_lp_mmshare_version>
49012

> <i_m_ct_stereo_status>
1

> <i_f3d_flags>
0

> <s_epik_input>
bjFbY0hdW25IXWMoYzEyKVtjSF1jKG5jMkMjTiktYzNbY0hdYyhDKEYpKEYpRiljKFtjSF1bY0hdMylPW0NIMl1bQ0gyXVtDSDJdW09IXQ==

> <s_epik_cmdline>
J2VwaWtfcHl0aG9uJywgJy1waHQnLCAnMC41JywgJy1waCcsICc3LjUnLCAnLW50JywgJy1tYScsICcyMDAnLCAnLWltYWUnLCAnPGluZmlsZS5tYWU+JywgJy1vbWFlJywgJzxvdXRmaWxlLm1hZT4n

> <r_lp_tautomer_probability>
1

> <r_epik_Ionization_Penalty>
  0.0350

> <r_epik_Ionization_Penalty_Charging>
  0.0000

> <r_epik_Ionization_Penalty_Neutral>
  0.0350

> <r_epik_State_Penalty>
 -0.0000

> <r_epik_Charging_Adjusted_Penalty>
1.09957420349954e-07

> <i_epik_Tot_Q>
0

> <i_epik_Tot_abs_Q>
0

> <s_lp_Force_Field>
OPLS3e

> <r_lp_Energy>
28.600798

> <b_lp_Chiralities_Consistent>
1

> <s_lp_Variant>
sdf/inactives_sanitized.sdf:533-1

$$$$
sdf/inactives_sanitized.sdf:534
                    3D
 Schrodinger Suite 2020-1.
 54 57  0  0  1  0            999 V2000
   -4.9889    1.0213    0.6252 N   0  0  0  0  0  0
   -4.4567   -0.0574   -0.0162 C   0  0  0  0  0  0
   -5.2422   -1.0319   -0.6539 C   0  0  0  0  0  0
   -6.3343    1.1852    0.6773 C   0  0  0  0  0  0
   -7.7103   -1.5548   -1.0778 N   0  0  0  0  0  0
   -8.8318   -0.8655   -0.6720 C   0  0  0  0  0  0
   -8.5769    0.2224    0.0077 N   0  0  0  0  0  0
   -7.2067    0.2624    0.0760 C   0  0  0  0  0  0
   -6.6286   -0.8474   -0.5926 C   0  0  0  0  0  0
   -6.7901    2.3679    1.3924 C   0  0  0  0  0  0
   -7.1531    3.3082    1.9609 N   0  0  0  0  0  0
   -2.9640   -0.1419   -0.0144 C   0  0  0  0  0  0
   -2.1654    1.0099   -0.0616 C   0  0  0  0  0  0
   -0.7655    0.9387   -0.0617 C   0  0  0  0  0  0
   -0.1353   -0.3165   -0.0116 C   0  0  0  0  0  0
   -0.9299   -1.4726    0.0364 C   0  0  0  0  0  0
   -2.3192   -1.3827    0.0348 C   0  0  0  0  0  0
    0.0710    2.2222   -0.1144 C   0  0  0  0  0  0
    0.8639    2.2885    0.9559 F   0  0  0  0  0  0
    0.8326    2.2169   -1.2092 F   0  0  0  0  0  0
   -0.6767    3.3275   -0.1395 F   0  0  0  0  0  0
   -7.6817   -2.8023   -1.8212 C   0  0  0  0  0  0
    1.2485   -0.3423   -0.0134 O   0  0  0  0  0  0
    1.9368   -1.5862    0.0680 C   0  0  0  0  0  0
    3.4443   -1.3006    0.0658 C   0  0  0  0  0  0
    4.2878   -2.5829    0.1535 C   0  0  0  0  0  0
    5.7904   -2.2427    0.0640 N   0  3  0  0  0  0
    6.3491   -1.4520    1.2650 C   0  0  0  0  0  0
    7.8316   -1.8366    1.3570 C   0  0  0  0  0  0
    8.0697   -2.9487    0.3352 C   0  0  0  0  0  0
    6.6871   -3.4880   -0.0150 C   0  0  0  0  0  0
   -4.8047   -1.8734   -1.1707 H   0  0  0  0  0  0
   -9.8138   -1.2390   -0.9248 H   0  0  0  0  0  0
   -2.6469    1.9763   -0.1043 H   0  0  0  0  0  0
   -0.4882   -2.4563    0.0773 H   0  0  0  0  0  0
   -2.8945   -2.2956    0.0824 H   0  0  0  0  0  0
   -7.3059   -3.5968   -1.1762 H   0  0  0  0  0  0
   -7.0207   -2.6942   -2.6817 H   0  0  0  0  0  0
   -8.6831   -3.0590   -2.1691 H   0  0  0  0  0  0
    1.6595   -2.1111    0.9842 H   0  0  0  0  0  0
    1.6760   -2.2179   -0.7833 H   0  0  0  0  0  0
    3.7070   -0.7521   -0.8400 H   0  0  0  0  0  0
    3.6803   -0.6441    0.9042 H   0  0  0  0  0  0
    4.1407   -3.1301    1.0864 H   0  0  0  0  0  0
    4.0976   -3.2461   -0.6918 H   0  0  0  0  0  0
    6.1575   -0.3942    1.0812 H   0  0  0  0  0  0
    5.7980   -1.7846    2.1467 H   0  0  0  0  0  0
    8.4757   -0.9783    1.1611 H   0  0  0  0  0  0
    8.0612   -2.1853    2.3650 H   0  0  0  0  0  0
    8.5496   -2.5506   -0.5602 H   0  0  0  0  0  0
    8.7183   -3.7309    0.7319 H   0  0  0  0  0  0
    6.5890   -3.9210   -1.0113 H   0  0  0  0  0  0
    6.3054   -4.1955    0.7239 H   0  0  0  0  0  0
    5.9370   -1.7039   -0.7783 H   0  0  0  0  0  0
  1  2  2  0  0  0
  1  4  1  0  0  0
  2 12  1  0  0  0
  2  3  1  0  0  0
  3  9  2  0  0  0
  3 32  1  0  0  0
  4  8  2  0  0  0
  4 10  1  0  0  0
  5  6  1  0  0  0
  5  9  1  0  0  0
  5 22  1  0  0  0
  6  7  2  0  0  0
  6 33  1  0  0  0
  7  8  1  0  0  0
  8  9  1  0  0  0
 10 11  3  0  0  0
 12 17  1  0  0  0
 12 13  2  0  0  0
 13 14  1  0  0  0
 13 34  1  0  0  0
 14 18  1  0  0  0
 14 15  2  0  0  0
 15 16  1  0  0  0
 15 23  1  0  0  0
 16 17  2  0  0  0
 16 35  1  0  0  0
 17 36  1  0  0  0
 18 19  1  0  0  0
 18 20  1  0  0  0
 18 21  1  0  0  0
 22 37  1  0  0  0
 22 38  1  0  0  0
 22 39  1  0  0  0
 23 24  1  0  0  0
 24 25  1  0  0  0
 24 40  1  0  0  0
 24 41  1  0  0  0
 25 26  1  0  0  0
 25 42  1  0  0  0
 25 43  1  0  0  0
 26 27  1  0  0  0
 26 44  1  0  0  0
 26 45  1  0  0  0
 27 28  1  0  0  0
 27 31  1  0  0  0
 27 54  1  0  0  0
 28 29  1  0  0  0
 28 46  1  0  0  0
 28 47  1  0  0  0
 29 30  1  0  0  0
 29 48  1  0  0  0
 29 49  1  0  0  0
 30 31  1  0  0  0
 30 50  1  0  0  0
 30 51  1  0  0  0
 31 52  1  0  0  0
 31 53  1  0  0  0
M  CHG  1  27   1
M  END
> <chembl_id>
CHEMBL1209087

> <chembl_pref_name>
None

> <s_m_source_file>
sdf/inactives_sanitized.sdf

> <i_m_source_file_index>
534

> <i_lp_mmshare_version>
49012

> <i_m_ct_stereo_status>
1

> <i_f3d_flags>
0

> <s_epik_input>
bjFbY0hdbihbQ0gzXSljKGMxMilbY0hdYyhuYzJDI04pLWMzW2NIXWMoQyhGKShGKUYpYyhbY0hdW2NIXTMpT1tDSDJdW0NIMl1bQ0gyXU40W0NIMl1bQ0gyXVtDSDJdW0NIMl00

> <s_epik_cmdline>
J2VwaWtfcHl0aG9uJywgJy1waHQnLCAnMC41JywgJy1waCcsICc3LjUnLCAnLW50JywgJy1tYScsICcyMDAnLCAnLWltYWUnLCAnPGluZmlsZS5tYWU+JywgJy1vbWFlJywgJzxvdXRmaWxlLm1hZT4n

> <r_lp_tautomer_probability>
1

> <r_epik_Ionization_Penalty>
  0.0032

> <r_epik_Ionization_Penalty_Charging>
  0.0032

> <r_epik_Ionization_Penalty_Neutral>
  0.0000

> <r_epik_State_Penalty>
 -0.0000

> <r_epik_Charging_Adjusted_Penalty>
0.00316348560471536

> <i_epik_Tot_Q>
1

> <i_epik_Tot_abs_Q>
1

> <s_lp_Force_Field>
OPLS3e

> <r_lp_Energy>
43.049585

> <b_lp_Chiralities_Consistent>
1

> <s_lp_Variant>
sdf/inactives_sanitized.sdf:534-1

$$$$
sdf/inactives_sanitized.sdf:535
                    3D
 Schrodinger Suite 2020-1.
 38 40  0  0  1  0            999 V2000
   -0.6875    1.2121   -0.0110 N   0  0  0  0  0  0
   -0.0552    0.0036   -0.0208 C   0  0  0  0  0  0
   -0.7526   -1.2173   -0.0008 C   0  0  0  0  0  0
   -2.0420    1.2752    0.0072 C   0  0  0  0  0  0
   -3.1625   -2.0741    0.0388 N   0  0  0  0  0  0
   -4.3426   -1.3637    0.0507 C   0  0  0  0  0  0
   -4.1880   -0.0650    0.0410 N   0  0  0  0  0  0
   -2.8269    0.1106    0.0210 C   0  0  0  0  0  0
   -2.1501   -1.1356    0.0176 C   0  0  0  0  0  0
   -2.6023    2.6184    0.0140 C   0  0  0  0  0  0
   -3.0480    3.6864    0.0196 N   0  0  0  0  0  0
    1.4438    0.0527   -0.0357 C   0  0  0  0  0  0
    2.1967   -1.0027   -0.5715 C   0  0  0  0  0  0
    3.6003   -0.9885   -0.5954 C   0  0  0  0  0  0
    4.2763    0.1289   -0.0605 C   0  0  0  0  0  0
    3.5353    1.1881    0.4692 C   0  0  0  0  0  0
    2.1448    1.1510    0.4808 C   0  0  0  0  0  0
    4.3512   -2.1862   -1.1982 C   0  0  0  0  0  0
    4.9836   -1.8056   -2.3085 F   0  0  0  0  0  0
    5.2447   -2.6647   -0.3323 F   0  0  0  0  0  0
    3.5379   -3.1932   -1.5238 F   0  0  0  0  0  0
   -3.0201   -3.5198    0.0441 C   0  0  0  0  0  0
    5.8007    0.2457   -0.0222 C   0  0  0  0  0  0
    6.3865   -0.1404    1.3477 C   0  0  0  0  0  0
    7.7933   -0.0262    1.3323 O   0  0  0  0  0  0
   -0.2475   -2.1714    0.0115 H   0  0  0  0  0  0
   -5.2867   -1.8891    0.0672 H   0  0  0  0  0  0
    1.6766   -1.8488   -0.9943 H   0  0  0  0  0  0
    4.0391    2.0499    0.8828 H   0  0  0  0  0  0
    1.6145    1.9898    0.9081 H   0  0  0  0  0  0
   -2.4493   -3.8223    0.9226 H   0  0  0  0  0  0
   -2.4883   -3.8329   -0.8552 H   0  0  0  0  0  0
   -4.0004   -3.9976    0.0690 H   0  0  0  0  0  0
    6.2584   -0.3522   -0.8088 H   0  0  0  0  0  0
    6.0728    1.2771   -0.2552 H   0  0  0  0  0  0
    5.9805    0.5003    2.1315 H   0  0  0  0  0  0
    6.1105   -1.1602    1.6166 H   0  0  0  0  0  0
    8.1494   -0.7193    0.7715 H   0  0  0  0  0  0
  1  2  2  0  0  0
  1  4  1  0  0  0
  2  3  1  0  0  0
  2 12  1  0  0  0
  3  9  2  0  0  0
  3 26  1  0  0  0
  4  8  2  0  0  0
  4 10  1  0  0  0
  5  6  1  0  0  0
  5  9  1  0  0  0
  5 22  1  0  0  0
  6  7  2  0  0  0
  6 27  1  0  0  0
  7  8  1  0  0  0
  8  9  1  0  0  0
 10 11  3  0  0  0
 12 13  2  0  0  0
 12 17  1  0  0  0
 13 14  1  0  0  0
 13 28  1  0  0  0
 14 15  2  0  0  0
 14 18  1  0  0  0
 15 16  1  0  0  0
 15 23  1  0  0  0
 16 17  2  0  0  0
 16 29  1  0  0  0
 17 30  1  0  0  0
 18 19  1  0  0  0
 18 20  1  0  0  0
 18 21  1  0  0  0
 22 31  1  0  0  0
 22 32  1  0  0  0
 22 33  1  0  0  0
 23 24  1  0  0  0
 23 34  1  0  0  0
 23 35  1  0  0  0
 24 25  1  0  0  0
 24 36  1  0  0  0
 24 37  1  0  0  0
 25 38  1  0  0  0
M  END
> <chembl_id>
CHEMBL1208909

> <chembl_pref_name>
None

> <s_m_source_file>
sdf/inactives_sanitized.sdf

> <i_m_source_file_index>
535

> <i_lp_mmshare_version>
49012

> <i_m_ct_stereo_status>
1

> <i_f3d_flags>
0

> <s_epik_input>
bjFbY0hdbihbQ0gzXSljKGMxMilbY0hdYyhuYzJDI04pLWMzW2NIXWMoQyhGKShGKUYpYyhbY0hdW2NIXTMpW0NIMl1bQ0gyXVtPSF0=

> <s_epik_cmdline>
J2VwaWtfcHl0aG9uJywgJy1waHQnLCAnMC41JywgJy1waCcsICc3LjUnLCAnLW50JywgJy1tYScsICcyMDAnLCAnLWltYWUnLCAnPGluZmlsZS5tYWU+JywgJy1vbWFlJywgJzxvdXRmaWxlLm1hZT4n

> <r_lp_tautomer_probability>
1

> <r_epik_Ionization_Penalty>
  0.0000

> <r_epik_Ionization_Penalty_Charging>
  0.0000

> <r_epik_Ionization_Penalty_Neutral>
  0.0000

> <r_epik_State_Penalty>
 -0.0000

> <r_epik_Charging_Adjusted_Penalty>
2.1337785140458e-07

> <i_epik_Tot_Q>
0

> <i_epik_Tot_abs_Q>
0

> <s_lp_Force_Field>
OPLS3e

> <r_lp_Energy>
31.482839

> <b_lp_Chiralities_Consistent>
1

> <s_lp_Variant>
sdf/inactives_sanitized.sdf:535-1

$$$$
sdf/inactives_sanitized.sdf:536
                    3D
 Schrodinger Suite 2020-1.
 35 37  0  0  1  0            999 V2000
   -4.9812   -1.0236    0.6185 N   0  0  0  0  0  0
   -4.3520    0.0137   -0.0049 C   0  0  0  0  0  0
   -5.0473    1.0619   -0.6322 C   0  0  0  0  0  0
   -6.3365   -1.0720    0.6603 C   0  0  0  0  0  0
   -7.4552    1.7993   -1.0493 N   0  0  0  0  0  0
   -8.6384    1.2058   -0.6804 C   0  0  0  0  0  0
   -8.4846    0.0907   -0.0134 N   0  0  0  0  0  0
   -7.1220   -0.0685    0.0686 C   0  0  0  0  0  0
   -6.4429    0.9962   -0.5769 C   0  0  0  0  0  0
   -6.8980   -2.2241    1.3497 C   0  0  0  0  0  0
   -7.3450   -3.1402    1.8979 N   0  0  0  0  0  0
   -2.8560   -0.0351    0.0001 C   0  0  0  0  0  0
   -2.0986    1.1439    0.0182 C   0  0  0  0  0  0
   -0.6968    1.1247    0.0138 C   0  0  0  0  0  0
   -0.0205   -0.1071   -0.0026 C   0  0  0  0  0  0
   -0.7726   -1.2922   -0.0159 C   0  0  0  0  0  0
   -2.1643   -1.2533   -0.0156 C   0  0  0  0  0  0
    0.0911    2.4398    0.0260 C   0  0  0  0  0  0
    0.8661    2.4914    1.1099 F   0  0  0  0  0  0
    0.8669    2.5099   -1.0565 F   0  0  0  0  0  0
   -0.6980    3.5163    0.0340 F   0  0  0  0  0  0
    1.3636   -0.0826   -0.0059 O   0  0  0  0  0  0
    2.0949   -1.3048   -0.0040 C   0  0  0  0  0  0
    3.5912   -0.9787   -0.0002 C   0  0  0  0  0  0
   -4.5385    1.8706   -1.1356 H   0  0  0  0  0  0
   -7.3971    2.6636   -1.5686 H   0  0  0  0  0  0
   -9.5772    1.6688   -0.9479 H   0  0  0  0  0  0
   -2.6115    2.0938    0.0434 H   0  0  0  0  0  0
   -0.2952   -2.2600   -0.0289 H   0  0  0  0  0  0
   -2.7051   -2.1886   -0.0334 H   0  0  0  0  0  0
    1.8476   -1.8954    0.8796 H   0  0  0  0  0  0
    1.8523   -1.8962   -0.8888 H   0  0  0  0  0  0
    4.1898   -1.8898   -0.0009 H   0  0  0  0  0  0
    3.8647   -0.4007    0.8830 H   0  0  0  0  0  0
    3.8688   -0.3966   -0.8795 H   0  0  0  0  0  0
  1  2  2  0  0  0
  1  4  1  0  0  0
  2  3  1  0  0  0
  2 12  1  0  0  0
  3  9  2  0  0  0
  3 25  1  0  0  0
  4  8  2  0  0  0
  4 10  1  0  0  0
  5  6  1  0  0  0
  5  9  1  0  0  0
  5 26  1  0  0  0
  6  7  2  0  0  0
  6 27  1  0  0  0
  7  8  1  0  0  0
  8  9  1  0  0  0
 10 11  3  0  0  0
 12 13  2  0  0  0
 12 17  1  0  0  0
 13 14  1  0  0  0
 13 28  1  0  0  0
 14 15  2  0  0  0
 14 18  1  0  0  0
 15 16  1  0  0  0
 15 22  1  0  0  0
 16 17  2  0  0  0
 16 29  1  0  0  0
 17 30  1  0  0  0
 18 19  1  0  0  0
 18 20  1  0  0  0
 18 21  1  0  0  0
 22 23  1  0  0  0
 23 24  1  0  0  0
 23 31  1  0  0  0
 23 32  1  0  0  0
 24 33  1  0  0  0
 24 34  1  0  0  0
 24 35  1  0  0  0
M  END
> <chembl_id>
CHEMBL1209856

> <chembl_pref_name>
None

> <s_m_source_file>
sdf/inactives_sanitized.sdf

> <i_m_source_file_index>
536

> <i_lp_mmshare_version>
49012

> <i_m_ct_stereo_status>
1

> <i_f3d_flags>
0

> <s_epik_input>
bjFbY0hdW25IXWMoYzEyKVtjSF1jKG5jMkMjTiktYzNbY0hdYyhDKEYpKEYpRiljKFtjSF1bY0hdMylPW0NIMl1bQ0gzXQ==

> <s_epik_cmdline>
J2VwaWtfcHl0aG9uJywgJy1waHQnLCAnMC41JywgJy1waCcsICc3LjUnLCAnLW50JywgJy1tYScsICcyMDAnLCAnLWltYWUnLCAnPGluZmlsZS5tYWU+JywgJy1vbWFlJywgJzxvdXRmaWxlLm1hZT4n

> <r_lp_tautomer_probability>
1

> <r_epik_Ionization_Penalty>
  0.0350

> <r_epik_Ionization_Penalty_Charging>
  0.0000

> <r_epik_Ionization_Penalty_Neutral>
  0.0350

> <r_epik_State_Penalty>
 -0.0000

> <r_epik_Charging_Adjusted_Penalty>
1.09957420349954e-07

> <i_epik_Tot_Q>
0

> <i_epik_Tot_abs_Q>
0

> <s_lp_Force_Field>
OPLS3e

> <r_lp_Energy>
27.447043

> <b_lp_Chiralities_Consistent>
1

> <s_lp_Variant>
sdf/inactives_sanitized.sdf:536-1

$$$$
sdf/inactives_sanitized.sdf:537
                    3D
 Schrodinger Suite 2020-1.
 77 80  0  0  1  0            999 V2000
   -2.0794   -4.0195   -3.2487 C   0  0  0  0  0  0
   -1.3816   -3.1041   -2.5279 O   0  0  0  0  0  0
   -2.2300   -2.0717   -2.2530 C   0  0  0  0  0  0
   -3.4764   -2.3435   -2.8078 C   0  0  0  0  0  0
   -3.3791   -3.5837   -3.4421 C   0  0  0  0  0  0
   -1.7699   -0.9375   -1.4944 C   0  0  0  0  0  0
   -0.4823   -1.0048   -1.1096 N   0  0  0  0  0  0
   -2.5222    0.0041   -1.2374 O   0  0  0  0  0  0
    0.2277    0.0112   -0.3309 C   0  0  2  0  0  0
    1.7417   -0.1458   -0.5732 C   0  0  0  0  0  0
    2.3872    0.9511   -1.0098 N   0  0  0  0  0  0
    2.2962   -1.2168   -0.3195 O   0  0  0  0  0  0
    3.8354    1.0625   -1.2350 C   0  0  2  0  0  0
    4.5563    1.4558    0.0742 C   0  0  0  0  0  0
    6.0796    1.3709    0.0558 C   0  0  0  0  0  0
    4.1283    2.0314   -2.4055 C   0  0  0  0  0  0
    6.6953    2.6320   -0.4289 N   0  0  3  0  0  0
    5.6155    2.3198   -2.7334 C   0  0  0  0  0  0
    6.3908    3.2506   -1.7601 C   0  0  1  0  0  0
    5.6993    4.6234   -1.6125 C   0  0  0  0  0  0
    3.9659    1.8061    1.0977 O   0  0  0  0  0  0
    8.5713    2.4466    1.4090 O   0  0  0  0  0  0
    8.4626    4.5582   -0.0048 O   0  0  0  0  0  0
    7.7845    3.4647    0.7021 S   0  0  0  0  0  0
    6.6822    4.1964    1.9116 C   0  0  0  0  0  0
    6.1669    5.4125    1.5884 N   0  0  0  0  0  0
    5.2829    5.9740    2.4521 C   0  0  0  0  0  0
    4.8833    5.3558    3.6386 C   0  0  0  0  0  0
    5.4188    4.1041    3.9508 C   0  0  0  0  0  0
    6.3305    3.5079    3.0775 C   0  0  0  0  0  0
   -0.1534   -0.0358    1.1767 C   0  0  0  0  0  0
    0.5597    0.9677    2.1228 C   0  0  0  0  0  0
    0.1082    0.7800    3.5935 C   0  0  0  0  0  0
    0.8480    1.7544    4.5391 C   0  0  0  0  0  0
    0.6373    3.2450    4.1417 C   0  0  0  0  0  0
    1.1434    3.3984    2.6777 C   0  0  0  0  0  0
    0.4130    2.4529    1.6942 C   0  0  0  0  0  0
   -0.8478    3.6675    4.2758 C   0  0  0  0  0  0
    1.5517    4.1019    5.0466 C   0  0  0  0  0  0
   -1.5395   -4.9064   -3.5468 H   0  0  0  0  0  0
   -4.3538   -1.7149   -2.7585 H   0  0  0  0  0  0
   -4.1621   -4.1008   -3.9767 H   0  0  0  0  0  0
    0.0634   -1.8155   -1.3639 H   0  0  0  0  0  0
   -0.0846    0.9834   -0.7190 H   0  0  0  0  0  0
    1.8493    1.7906   -1.1691 H   0  0  0  0  0  0
    4.2280    0.0832   -1.5186 H   0  0  0  0  0  0
    6.4252    1.1725    1.0703 H   0  0  0  0  0  0
    6.4403    0.5378   -0.5471 H   0  0  0  0  0  0
    3.6719    1.6097   -3.3026 H   0  0  0  0  0  0
    3.6011    2.9733   -2.2469 H   0  0  0  0  0  0
    5.6508    2.7777   -3.7233 H   0  0  0  0  0  0
    6.1522    1.3768   -2.8467 H   0  0  0  0  0  0
    7.3598    3.4183   -2.2326 H   0  0  0  0  0  0
    5.3818    5.0112   -2.5808 H   0  0  0  0  0  0
    6.3644    5.3722   -1.1861 H   0  0  0  0  0  0
    4.8178    4.5642   -0.9730 H   0  0  0  0  0  0
    4.8891    6.9411    2.1762 H   0  0  0  0  0  0
    4.1748    5.8337    4.2991 H   0  0  0  0  0  0
    5.1255    3.5973    4.8583 H   0  0  0  0  0  0
    6.7401    2.5329    3.2979 H   0  0  0  0  0  0
   -1.2303    0.1133    1.2713 H   0  0  0  0  0  0
    0.0268   -1.0479    1.5445 H   0  0  0  0  0  0
    1.6297    0.7535    2.1121 H   0  0  0  0  0  0
   -0.9718    0.9043    3.6754 H   0  0  0  0  0  0
    0.2888   -0.2499    3.9048 H   0  0  0  0  0  0
    0.5148    1.5898    5.5650 H   0  0  0  0  0  0
    1.9117    1.5071    4.5364 H   0  0  0  0  0  0
    1.0251    4.4312    2.3464 H   0  0  0  0  0  0
    2.2158    3.2013    2.6273 H   0  0  0  0  0  0
    0.8042    2.6005    0.6881 H   0  0  0  0  0  0
   -0.6420    2.7156    1.6171 H   0  0  0  0  0  0
   -0.9814    4.7148    4.0024 H   0  0  0  0  0  0
   -1.1933    3.5581    5.3046 H   0  0  0  0  0  0
   -1.5243    3.0875    3.6503 H   0  0  0  0  0  0
    1.5066    5.1566    4.7722 H   0  0  0  0  0  0
    2.5958    3.7936    4.9837 H   0  0  0  0  0  0
    1.2554    4.0274    6.0938 H   0  0  0  0  0  0
  1  5  2  0  0  0
  1  2  1  0  0  0
  1 40  1  0  0  0
  2  3  1  0  0  0
  3  6  1  0  0  0
  3  4  2  0  0  0
  4  5  1  0  0  0
  4 41  1  0  0  0
  5 42  1  0  0  0
  6  7  1  0  0  0
  6  8  2  0  0  0
  7  9  1  0  0  0
  7 43  1  0  0  0
  9 10  1  0  0  0
  9 31  1  0  0  0
  9 44  1  0  0  0
 10 11  1  0  0  0
 10 12  2  0  0  0
 11 13  1  0  0  0
 11 45  1  0  0  0
 13 14  1  0  0  0
 13 16  1  0  0  0
 13 46  1  0  0  0
 14 21  2  0  0  0
 14 15  1  0  0  0
 15 17  1  0  0  0
 15 47  1  0  0  0
 15 48  1  0  0  0
 16 18  1  0  0  0
 16 49  1  0  0  0
 16 50  1  0  0  0
 17 24  1  0  0  0
 17 19  1  0  0  0
 18 19  1  0  0  0
 18 51  1  0  0  0
 18 52  1  0  0  0
 19 20  1  0  0  0
 19 53  1  0  0  0
 20 54  1  0  0  0
 20 55  1  0  0  0
 20 56  1  0  0  0
 22 24  2  0  0  0
 23 24  2  0  0  0
 24 25  1  0  0  0
 25 26  2  0  0  0
 25 30  1  0  0  0
 26 27  1  0  0  0
 27 28  2  0  0  0
 27 57  1  0  0  0
 28 29  1  0  0  0
 28 58  1  0  0  0
 29 30  2  0  0  0
 29 59  1  0  0  0
 30 60  1  0  0  0
 31 32  1  0  0  0
 31 61  1  0  0  0
 31 62  1  0  0  0
 32 33  1  0  0  0
 32 37  1  0  0  0
 32 63  1  0  0  0
 33 34  1  0  0  0
 33 64  1  0  0  0
 33 65  1  0  0  0
 34 35  1  0  0  0
 34 66  1  0  0  0
 34 67  1  0  0  0
 35 36  1  0  0  0
 35 38  1  0  0  0
 35 39  1  0  0  0
 36 37  1  0  0  0
 36 68  1  0  0  0
 36 69  1  0  0  0
 37 70  1  0  0  0
 37 71  1  0  0  0
 38 72  1  0  0  0
 38 73  1  0  0  0
 38 74  1  0  0  0
 39 75  1  0  0  0
 39 76  1  0  0  0
 39 77  1  0  0  0
M  END
> <chembl_id>
CHEMBL1807699

> <chembl_pref_name>
None

> <i_m_ct_stereo_status>
1

> <s_m_source_file>
sdf/inactives_sanitized.sdf

> <i_m_source_file_index>
537

> <i_lp_mmshare_version>
49012

> <i_f3d_flags>
0

> <s_epik_input>
W2NIXTFbY0hdW2NIXW9jMUMoPU8pW05IXVtDQEBIXShbQ0gyXVtDSF0oW0NIMl1bQ0gyXTIpW0NIMl1bQ0gyXUMyKFtDSDNdKVtDSDNdKUMoPU8pW05IXVtDQEBIXTNDKD1PKVtDSDJdTihbQ0BIXShbQ0gzXSlbQ0gyXVtDSDJdMylTKD1PKSg9TyljNG5bY0hdW2NIXVtjSF1bY0hdNA==

> <s_epik_cmdline>
J2VwaWtfcHl0aG9uJywgJy1waHQnLCAnMC41JywgJy1waCcsICc3LjUnLCAnLW50JywgJy1tYScsICcyMDAnLCAnLWltYWUnLCAnPGluZmlsZS5tYWU+JywgJy1vbWFlJywgJzxvdXRmaWxlLm1hZT4n

> <r_lp_tautomer_probability>
1

> <r_epik_Ionization_Penalty>
  0.0000

> <r_epik_Ionization_Penalty_Charging>
  0.0000

> <r_epik_Ionization_Penalty_Neutral>
  0.0000

> <r_epik_State_Penalty>
 -0.0000

> <r_epik_Charging_Adjusted_Penalty>
0

> <i_epik_Tot_Q>
0

> <i_epik_Tot_abs_Q>
0

> <s_lp_Force_Field>
OPLS3e

> <r_lp_Energy>
44.177974

> <b_lp_Chiralities_Consistent>
1

> <s_lp_Variant>
sdf/inactives_sanitized.sdf:537-1

$$$$
sdf/inactives_sanitized.sdf:538
                    3D
 Schrodinger Suite 2020-1.
 41 43  0  0  1  0            999 V2000
   -0.6368    1.2506    0.0368 C   0  0  0  0  0  0
    0.0251    0.0360   -0.0412 N   0  0  0  0  0  0
   -0.5380   -1.2284   -0.1807 C   0  0  0  0  0  0
   -1.9254   -1.1891   -0.0830 N   0  0  0  0  0  0
   -2.6967   -0.0258   -0.1426 N   0  0  0  0  0  0
   -2.0888    1.0971   -0.0615 C   0  0  0  0  0  0
    0.1145   -2.2670   -0.3357 O   0  0  0  0  0  0
   -2.9153    2.2854   -0.0789 C   0  0  0  0  0  0
   -3.6097    3.2114   -0.1035 N   0  0  0  0  0  0
   -0.0919    2.3501    0.1676 O   0  0  0  0  0  0
    1.5067    0.0942    0.0116 C   0  0  0  0  0  0
    2.0759   -0.0277    1.4393 C   0  0  0  0  0  0
    3.6073    0.0468    1.4668 C   0  0  0  0  0  0
   -2.6866   -2.3873   -0.0415 C   0  0  0  0  0  0
   -2.3850   -3.4008    0.8838 C   0  0  0  0  0  0
   -3.1294   -4.5888    0.9442 C   0  0  0  0  0  0
   -4.1987   -4.7427    0.0503 C   0  0  0  0  0  0
   -4.5174   -3.7460   -0.8693 C   0  0  0  0  0  0
   -3.7683   -2.5736   -0.9150 C   0  0  0  0  0  0
   -2.7943   -5.6579    1.9341 C   0  0  0  0  0  0
   -2.9626   -7.0125    1.6107 C   0  0  0  0  0  0
   -2.6500   -8.0098    2.5306 C   0  0  0  0  0  0
   -2.1663   -7.6608    3.7877 C   0  0  0  0  0  0
   -1.9925   -6.3235    4.1301 C   0  0  0  0  0  0
   -2.3047   -5.3290    3.2068 C   0  0  0  0  0  0
    1.9500   -0.6810   -0.6164 H   0  0  0  0  0  0
    1.8771    1.0163   -0.4407 H   0  0  0  0  0  0
    1.7607   -0.9726    1.8843 H   0  0  0  0  0  0
    1.6736    0.7690    2.0667 H   0  0  0  0  0  0
    3.9828   -0.0415    2.4867 H   0  0  0  0  0  0
    3.9635    0.9958    1.0646 H   0  0  0  0  0  0
    4.0540   -0.7560    0.8791 H   0  0  0  0  0  0
   -1.5553   -3.2618    1.5621 H   0  0  0  0  0  0
   -4.8042   -5.6370    0.0704 H   0  0  0  0  0  0
   -5.3478   -3.8821   -1.5464 H   0  0  0  0  0  0
   -4.0295   -1.8154   -1.6394 H   0  0  0  0  0  0
   -3.3274   -7.3044    0.6367 H   0  0  0  0  0  0
   -2.7802   -9.0495    2.2689 H   0  0  0  0  0  0
   -1.9237   -8.4335    4.5022 H   0  0  0  0  0  0
   -1.6190   -6.0584    5.1082 H   0  0  0  0  0  0
   -2.1728   -4.2967    3.4960 H   0  0  0  0  0  0
  1  6  1  0  0  0
  1  2  1  0  0  0
  1 10  2  0  0  0
  2  3  1  0  0  0
  2 11  1  0  0  0
  3  7  2  0  0  0
  3  4  1  0  0  0
  4 14  1  0  0  0
  4  5  1  0  0  0
  5  6  2  0  0  0
  6  8  1  0  0  0
  8  9  3  0  0  0
 11 12  1  0  0  0
 11 26  1  0  0  0
 11 27  1  0  0  0
 12 13  1  0  0  0
 12 28  1  0  0  0
 12 29  1  0  0  0
 13 30  1  0  0  0
 13 31  1  0  0  0
 13 32  1  0  0  0
 14 15  2  0  0  0
 14 19  1  0  0  0
 15 16  1  0  0  0
 15 33  1  0  0  0
 16 17  2  0  0  0
 16 20  1  0  0  0
 17 18  1  0  0  0
 17 34  1  0  0  0
 18 19  2  0  0  0
 18 35  1  0  0  0
 19 36  1  0  0  0
 20 21  2  0  0  0
 20 25  1  0  0  0
 21 22  1  0  0  0
 21 37  1  0  0  0
 22 23  2  0  0  0
 22 38  1  0  0  0
 23 24  1  0  0  0
 23 39  1  0  0  0
 24 25  2  0  0  0
 24 40  1  0  0  0
 25 41  1  0  0  0
M  END
> <chembl_id>
CHEMBL1078872

> <chembl_pref_name>
None

> <s_m_source_file>
sdf/inactives_sanitized.sdf

> <i_m_source_file_index>
538

> <i_lp_mmshare_version>
49012

> <i_m_ct_stereo_status>
1

> <i_f3d_flags>
0

> <s_epik_input>
W0NIM11bQ0gyXVtDSDJdbihjMT1PKWMoPU8pbihuYzFDI04pLWMyW2NIXWMoW2NIXVtjSF1bY0hdMiktYzNbY0hdW2NIXVtjSF1bY0hdW2NIXTM=

> <s_epik_cmdline>
J2VwaWtfcHl0aG9uJywgJy1waHQnLCAnMC41JywgJy1waCcsICc3LjUnLCAnLW50JywgJy1tYScsICcyMDAnLCAnLWltYWUnLCAnPGluZmlsZS5tYWU+JywgJy1vbWFlJywgJzxvdXRmaWxlLm1hZT4n

> <r_lp_tautomer_probability>
1

> <r_epik_Ionization_Penalty>
  0.0000

> <r_epik_Ionization_Penalty_Charging>
  0.0000

> <r_epik_Ionization_Penalty_Neutral>
  0.0000

> <r_epik_State_Penalty>
 -0.0000

> <r_epik_Charging_Adjusted_Penalty>
1.80616346230733e-12

> <i_epik_Tot_Q>
0

> <i_epik_Tot_abs_Q>
0

> <s_lp_Force_Field>
OPLS3e

> <r_lp_Energy>
66.646609

> <b_lp_Chiralities_Consistent>
1

> <s_lp_Variant>
sdf/inactives_sanitized.sdf:538-1

$$$$
sdf/inactives_sanitized.sdf:539
                    3D
 Schrodinger Suite 2020-1.
 41 42  0  0  1  0            999 V2000
   -0.5914    4.6353    1.6740 C   0  0  1  0  0  0
   -1.2978    3.2949    1.9585 C   0  0  0  0  0  0
   -0.2652    2.2030    1.6601 C   0  0  2  0  0  0
    1.0426    2.9994    1.6329 C   0  0  0  0  0  0
    0.6140    4.2164    0.9645 N   0  0  2  0  0  0
   -0.5362    1.4715    0.4004 N   0  0  2  0  0  0
    0.0259   -0.1857    0.1869 S   0  0  0  0  0  0
    1.8152   -0.0652    0.0682 C   0  0  0  0  0  0
    2.4061    0.7650   -0.8972 C   0  0  0  0  0  0
    3.8070    0.8493   -0.9440 C   0  0  0  0  0  0
    4.5942    0.1322   -0.0457 C   0  0  0  0  0  0
    4.0121   -0.6849    0.9224 C   0  0  0  0  0  0
    2.6123   -0.7774    0.9709 C   0  0  0  0  0  0
   -0.3050   -0.9365    1.4039 O   0  0  0  0  0  0
   -0.4493   -0.6329   -1.1269 O   0  0  0  0  0  0
   -1.4372    5.6545    0.8908 C   0  0  0  0  0  0
    1.5474    5.1252    0.6263 C   0  0  0  0  0  0
    2.3573    5.8785    0.2863 N   0  0  0  0  0  0
    4.8729   -1.3499    1.7742 O   0  0  0  0  0  0
    4.3338   -2.1875    2.7910 C   0  0  0  0  0  0
    1.5715    1.4664   -1.7484 O   0  0  0  0  0  0
    2.1166    2.4878   -2.5762 C   0  0  0  0  0  0
   -0.2890    5.0921    2.6185 H   0  0  0  0  0  0
   -1.6100    3.2564    3.0029 H   0  0  0  0  0  0
   -2.1995    3.1692    1.3558 H   0  0  0  0  0  0
   -0.2139    1.4510    2.4483 H   0  0  0  0  0  0
    1.4061    3.2166    2.6391 H   0  0  0  0  0  0
    1.8391    2.4929    1.0910 H   0  0  0  0  0  0
   -0.5814    2.0429   -0.4476 H   0  0  0  0  0  0
    4.3066    1.4706   -1.6713 H   0  0  0  0  0  0
    5.6698    0.2158   -0.1003 H   0  0  0  0  0  0
    2.1348   -1.4025    1.7094 H   0  0  0  0  0  0
   -2.3463    5.9089    1.4362 H   0  0  0  0  0  0
   -1.7311    5.2646   -0.0844 H   0  0  0  0  0  0
   -0.8860    6.5809    0.7251 H   0  0  0  0  0  0
    5.1495   -2.6236    3.3674 H   0  0  0  0  0  0
    3.7533   -3.0085    2.3674 H   0  0  0  0  0  0
    3.7062   -1.6238    3.4830 H   0  0  0  0  0  0
    1.3069    2.9909   -3.1047 H   0  0  0  0  0  0
    2.7940    2.0760   -3.3255 H   0  0  0  0  0  0
    2.6441    3.2408   -1.9883 H   0  0  0  0  0  0
  1  2  1  0  0  0
  1 16  1  0  0  0
  1  5  1  0  0  0
  1 23  1  0  0  0
  2  3  1  0  0  0
  2 24  1  0  0  0
  2 25  1  0  0  0
  3  6  1  0  0  0
  3  4  1  0  0  0
  3 26  1  0  0  0
  4  5  1  0  0  0
  4 27  1  0  0  0
  4 28  1  0  0  0
  5 17  1  0  0  0
  6  7  1  0  0  0
  6 29  1  0  0  0
  7 14  2  0  0  0
  7 15  2  0  0  0
  7  8  1  0  0  0
  8 13  1  0  0  0
  8  9  2  0  0  0
  9 10  1  0  0  0
  9 21  1  0  0  0
 10 11  2  0  0  0
 10 30  1  0  0  0
 11 12  1  0  0  0
 11 31  1  0  0  0
 12 13  2  0  0  0
 12 19  1  0  0  0
 13 32  1  0  0  0
 16 33  1  0  0  0
 16 34  1  0  0  0
 16 35  1  0  0  0
 17 18  3  0  0  0
 19 20  1  0  0  0
 20 36  1  0  0  0
 20 37  1  0  0  0
 20 38  1  0  0  0
 21 22  1  0  0  0
 22 39  1  0  0  0
 22 40  1  0  0  0
 22 41  1  0  0  0
M  END
> <chembl_id>
CHEMBL1672433

> <chembl_pref_name>
None

> <i_m_ct_stereo_status>
1

> <s_m_source_file>
sdf/inactives_sanitized.sdf

> <i_m_source_file_index>
539

> <i_lp_mmshare_version>
49012

> <i_f3d_flags>
0

> <s_epik_input>
TiNDTjFbQ0gyXVtDQEBIXShbQ0gyXVtDQEBIXTFbQ0gzXSlbTkhdUyg9TykoPU8pYzJjKE9bQ0gzXSlbY0hdW2NIXWMoW2NIXTIpT1tDSDNd

> <s_epik_cmdline>
J2VwaWtfcHl0aG9uJywgJy1waHQnLCAnMC41JywgJy1waCcsICc3LjUnLCAnLW50JywgJy1tYScsICcyMDAnLCAnLWltYWUnLCAnPGluZmlsZS5tYWU+JywgJy1vbWFlJywgJzxvdXRmaWxlLm1hZT4n

> <r_lp_tautomer_probability>
1

> <r_epik_Ionization_Penalty>
  0.0001

> <r_epik_Ionization_Penalty_Charging>
  0.0000

> <r_epik_Ionization_Penalty_Neutral>
  0.0001

> <r_epik_State_Penalty>
 -0.0000

> <r_epik_Charging_Adjusted_Penalty>
0

> <i_epik_Tot_Q>
0

> <i_epik_Tot_abs_Q>
0

> <s_lp_Force_Field>
OPLS3e

> <r_lp_Energy>
15.787355

> <b_lp_Chiralities_Consistent>
1

> <s_lp_Variant>
sdf/inactives_sanitized.sdf:539-1

$$$$
sdf/inactives_sanitized.sdf:540
                    3D
 Schrodinger Suite 2020-1.
 53 56  0  0  1  0            999 V2000
   -3.8879    7.7553    2.2109 F   0  0  0  0  0  0
   -3.1658    7.3084    1.1546 C   0  0  0  0  0  0
   -2.6976    5.9935    1.1627 C   0  0  0  0  0  0
   -1.9490    5.4834    0.0931 C   0  0  0  0  0  0
   -1.6780    6.3298   -0.9903 C   0  0  0  0  0  0
   -2.1404    7.6454   -1.0072 C   0  0  0  0  0  0
   -2.8869    8.1419    0.0643 C   0  0  0  0  0  0
   -3.3632    9.5186    0.0304 C   0  0  0  0  0  0
   -3.7412   10.6120    0.0031 N   0  0  0  0  0  0
   -1.4538    4.0778    0.1075 C   0  0  0  0  0  0
   -1.5156    3.2890   -1.0480 C   0  0  0  0  0  0
   -1.0489    1.9778   -1.0386 C   0  0  0  0  0  0
   -0.5104    1.4388    0.1305 C   0  0  0  0  0  0
    0.0341    0.0158    0.1385 C   0  0  0  0  0  0
    1.5744   -0.0608    0.0440 C   0  0  2  0  0  0
    2.1019    0.5513   -1.1790 N   0  0  0  0  0  0
    2.6476    1.7786   -1.2658 C   0  0  0  0  0  0
    2.7996    2.5066   -0.2813 O   0  0  0  0  0  0
    3.0909    2.2186   -2.6860 C   0  0  1  0  0  0
    3.2803    3.6911   -2.7287 N   0  0  1  0  0  0
    4.5947    4.0786   -3.2743 C   0  0  2  0  0  0
    4.7274    3.4672   -4.6971 C   0  0  0  0  0  0
    4.6076    1.9168   -4.6352 C   0  0  0  0  0  0
    4.3743    1.4516   -3.1698 C   0  0  1  0  0  0
    5.5826    1.9303   -2.3092 C   0  0  0  0  0  0
    5.6956    3.4798   -2.3565 C   0  0  0  0  0  0
    2.0629   -1.4450    0.1531 C   0  0  0  0  0  0
    2.4469   -2.5333    0.2383 N   0  0  0  0  0  0
   -0.4465    2.2130    1.2891 C   0  0  0  0  0  0
   -0.9159    3.5233    1.2756 C   0  0  0  0  0  0
   -2.9272    5.3643    2.0105 H   0  0  0  0  0  0
   -1.0974    5.9715   -1.8282 H   0  0  0  0  0  0
   -1.9105    8.2708   -1.8590 H   0  0  0  0  0  0
   -1.9300    3.6894   -1.9619 H   0  0  0  0  0  0
   -1.0986    1.3879   -1.9422 H   0  0  0  0  0  0
   -0.3058   -0.4800    1.0495 H   0  0  0  0  0  0
   -0.4183   -0.5527   -0.6761 H   0  0  0  0  0  0
    1.9965    0.4307    0.9235 H   0  0  0  0  0  0
    1.9232    0.0500   -2.0365 H   0  0  0  0  0  0
    2.2431    1.9753   -3.3298 H   0  0  0  0  0  0
    2.5853    4.0801   -3.3494 H   0  0  0  0  0  0
    4.6698    5.1660   -3.3089 H   0  0  0  0  0  0
    3.9617    3.8785   -5.3568 H   0  0  0  0  0  0
    5.6851    3.7516   -5.1354 H   0  0  0  0  0  0
    3.7913    1.5755   -5.2737 H   0  0  0  0  0  0
    5.5114    1.4547   -5.0351 H   0  0  0  0  0  0
    4.2524    0.3683   -3.1201 H   0  0  0  0  0  0
    5.4857    1.5869   -1.2784 H   0  0  0  0  0  0
    6.5031    1.4791   -2.6822 H   0  0  0  0  0  0
    5.6082    3.8922   -1.3499 H   0  0  0  0  0  0
    6.6825    3.7729   -2.7170 H   0  0  0  0  0  0
   -0.0242    1.8056    2.1962 H   0  0  0  0  0  0
   -0.8483    4.1115    2.1793 H   0  0  0  0  0  0
  1  2  1  0  0  0
  2  3  2  0  0  0
  2  7  1  0  0  0
  3  4  1  0  0  0
  3 31  1  0  0  0
  4  5  2  0  0  0
  4 10  1  0  0  0
  5  6  1  0  0  0
  5 32  1  0  0  0
  6  7  2  0  0  0
  6 33  1  0  0  0
  7  8  1  0  0  0
  8  9  3  0  0  0
 10 11  2  0  0  0
 10 30  1  0  0  0
 11 12  1  0  0  0
 11 34  1  0  0  0
 12 13  2  0  0  0
 12 35  1  0  0  0
 13 14  1  0  0  0
 13 29  1  0  0  0
 14 15  1  0  0  0
 14 36  1  0  0  0
 14 37  1  0  0  0
 15 16  1  0  0  0
 15 27  1  0  0  0
 15 38  1  0  0  0
 16 17  1  0  0  0
 16 39  1  0  0  0
 17 18  2  0  0  0
 17 19  1  0  0  0
 19 20  1  0  0  0
 19 24  1  0  0  0
 19 40  1  0  0  0
 20 21  1  0  0  0
 20 41  1  0  0  0
 21 22  1  0  0  0
 21 26  1  0  0  0
 21 42  1  0  0  0
 22 23  1  0  0  0
 22 43  1  0  0  0
 22 44  1  0  0  0
 23 24  1  0  0  0
 23 45  1  0  0  0
 23 46  1  0  0  0
 24 25  1  0  0  0
 24 47  1  0  0  0
 25 26  1  0  0  0
 25 48  1  0  0  0
 25 49  1  0  0  0
 26 50  1  0  0  0
 26 51  1  0  0  0
 27 28  3  0  0  0
 29 30  2  0  0  0
 29 52  1  0  0  0
 30 53  1  0  0  0
M  END
> <chembl_id>
CHEMBL3695334

> <chembl_pref_name>
None

> <i_m_ct_stereo_status>
1

> <s_m_source_file>
sdf/inactives_sanitized.sdf

> <i_m_source_file_index>
540

> <i_lp_mmshare_version>
49012

> <i_f3d_flags>
0

> <s_epik_input>
TiNDYzFbY0hdW2NIXWMoW2NIXWMxRiktYzJbY0hdW2NIXWMoW2NIXVtjSF0yKVtDSDJdW0NAQEhdKEMjTilbTkhdQyg9TylbQ0BASF0oW05IXVtDQEhdMzQpW0NAQEhdKFtDSDJdW0NIMl0zKVtDSDJdW0NIMl00

> <s_epik_cmdline>
J2VwaWtfcHl0aG9uJywgJy1waHQnLCAnMC41JywgJy1waCcsICc3LjUnLCAnLW50JywgJy1tYScsICcyMDAnLCAnLWltYWUnLCAnPGluZmlsZS5tYWU+JywgJy1vbWFlJywgJzxvdXRmaWxlLm1hZT4n

> <r_epik_Ionization_Penalty>
  0.4101

> <r_epik_Ionization_Penalty_Charging>
  0.0000

> <r_epik_Ionization_Penalty_Neutral>
  0.4101

> <r_epik_State_Penalty>
  0.4100

> <r_epik_Charging_Adjusted_Penalty>
0.410033589345069

> <i_epik_Tot_Q>
0

> <i_epik_Tot_abs_Q>
0

> <s_lp_Force_Field>
OPLS3e

> <r_lp_Energy>
45.182414

> <b_lp_Chiralities_Consistent>
1

> <s_lp_Variant>
sdf/inactives_sanitized.sdf:540-1

$$$$
sdf/inactives_sanitized.sdf:540
                    3D
 Schrodinger Suite 2020-1.
 54 57  0  0  1  0            999 V2000
   -4.8763    7.3616   -1.1069 F   0  0  0  0  0  0
   -3.6721    7.0969   -0.5439 C   0  0  0  0  0  0
   -3.2103    5.7800   -0.5227 C   0  0  0  0  0  0
   -1.9717    5.4549    0.0473 C   0  0  0  0  0  0
   -1.2040    6.4884    0.6008 C   0  0  0  0  0  0
   -1.6567    7.8073    0.5840 C   0  0  0  0  0  0
   -2.8924    8.1191    0.0117 C   0  0  0  0  0  0
   -3.3498    9.5027    0.0023 C   0  0  0  0  0  0
   -3.7125   10.6016   -0.0049 N   0  0  0  0  0  0
   -1.4807    4.0480    0.0607 C   0  0  0  0  0  0
   -1.6300    3.2308   -1.0668 C   0  0  0  0  0  0
   -1.1559    1.9221   -1.0631 C   0  0  0  0  0  0
   -0.5274    1.4129    0.0740 C   0  0  0  0  0  0
    0.0361   -0.0026    0.0705 C   0  0  0  0  0  0
    1.5787   -0.0559   -0.0144 C   0  0  2  0  0  0
    2.1105    0.5798   -1.2241 N   0  0  0  0  0  0
    2.5857    1.8362   -1.2998 C   0  0  0  0  0  0
    2.6519    2.5798   -0.3172 O   0  0  0  0  0  0
    3.0405    2.2926   -2.7099 C   0  0  1  0  0  0
    3.3087    3.8241   -2.6121 N   0  3  0  0  0  0
    4.7334    4.2056   -3.0811 C   0  0  2  0  0  0
    4.8686    3.6990   -4.5396 C   0  0  0  0  0  0
    4.6604    2.1586   -4.6104 C   0  0  0  0  0  0
    4.3380    1.5661   -3.2082 C   0  0  1  0  0  0
    5.5283    1.9182   -2.2630 C   0  0  0  0  0  0
    5.7257    3.4564   -2.1563 C   0  0  0  0  0  0
    2.0875   -1.4335    0.0824 C   0  0  0  0  0  0
    2.4879   -2.5164    0.1578 N   0  0  0  0  0  0
   -0.3848    2.2124    1.2081 C   0  0  0  0  0  0
   -0.8562    3.5219    1.1984 C   0  0  0  0  0  0
   -3.8291    5.0047   -0.9511 H   0  0  0  0  0  0
   -0.2419    6.2746    1.0435 H   0  0  0  0  0  0
   -1.0364    8.5795    1.0179 H   0  0  0  0  0  0
   -2.1049    3.6125   -1.9590 H   0  0  0  0  0  0
   -1.2678    1.3125   -1.9480 H   0  0  0  0  0  0
   -0.3021   -0.5097    0.9757 H   0  0  0  0  0  0
   -0.4019   -0.5709   -0.7521 H   0  0  0  0  0  0
    1.9909    0.4290    0.8733 H   0  0  0  0  0  0
    1.9947    0.0594   -2.0815 H   0  0  0  0  0  0
    2.1874    2.1778   -3.3810 H   0  0  0  0  0  0
    2.6367    4.3180   -3.1820 H   0  0  0  0  0  0
    4.8078    5.2904   -2.9952 H   0  0  0  0  0  0
    4.1464    4.2060   -5.1816 H   0  0  0  0  0  0
    5.8524    3.9609   -4.9320 H   0  0  0  0  0  0
    3.8579    1.9219   -5.3111 H   0  0  0  0  0  0
    5.5531    1.6808   -5.0174 H   0  0  0  0  0  0
    4.1945    0.4862   -3.2728 H   0  0  0  0  0  0
    5.3810    1.4845   -1.2728 H   0  0  0  0  0  0
    6.4418    1.4570   -2.6420 H   0  0  0  0  0  0
    5.5882    3.7789   -1.1227 H   0  0  0  0  0  0
    6.7510    3.7213   -2.4184 H   0  0  0  0  0  0
    0.1028    1.8261    2.0916 H   0  0  0  0  0  0
   -0.7329    4.1280    2.0843 H   0  0  0  0  0  0
    3.1824    4.1212   -1.6542 H   0  0  0  0  0  0
  1  2  1  0  0  0
  2  3  2  0  0  0
  2  7  1  0  0  0
  3  4  1  0  0  0
  3 31  1  0  0  0
  4  5  2  0  0  0
  4 10  1  0  0  0
  5  6  1  0  0  0
  5 32  1  0  0  0
  6  7  2  0  0  0
  6 33  1  0  0  0
  7  8  1  0  0  0
  8  9  3  0  0  0
 10 11  2  0  0  0
 10 30  1  0  0  0
 11 12  1  0  0  0
 11 34  1  0  0  0
 12 13  2  0  0  0
 12 35  1  0  0  0
 13 14  1  0  0  0
 13 29  1  0  0  0
 14 15  1  0  0  0
 14 36  1  0  0  0
 14 37  1  0  0  0
 15 16  1  0  0  0
 15 27  1  0  0  0
 15 38  1  0  0  0
 16 17  1  0  0  0
 16 39  1  0  0  0
 17 18  2  0  0  0
 17 19  1  0  0  0
 19 20  1  0  0  0
 19 24  1  0  0  0
 19 40  1  0  0  0
 20 21  1  0  0  0
 20 41  1  0  0  0
 20 54  1  0  0  0
 21 22  1  0  0  0
 21 26  1  0  0  0
 21 42  1  0  0  0
 22 23  1  0  0  0
 22 43  1  0  0  0
 22 44  1  0  0  0
 23 24  1  0  0  0
 23 45  1  0  0  0
 23 46  1  0  0  0
 24 25  1  0  0  0
 24 47  1  0  0  0
 25 26  1  0  0  0
 25 48  1  0  0  0
 25 49  1  0  0  0
 26 50  1  0  0  0
 26 51  1  0  0  0
 27 28  3  0  0  0
 29 30  2  0  0  0
 29 52  1  0  0  0
 30 53  1  0  0  0
M  CHG  1  20   1
M  END
> <chembl_id>
CHEMBL3695334

> <chembl_pref_name>
None

> <i_m_ct_stereo_status>
1

> <s_m_source_file>
sdf/inactives_sanitized.sdf

> <i_m_source_file_index>
540

> <i_lp_mmshare_version>
49012

> <i_f3d_flags>
0

> <s_epik_input>
TiNDYzFbY0hdW2NIXWMoW2NIXWMxRiktYzJbY0hdW2NIXWMoW2NIXVtjSF0yKVtDSDJdW0NAQEhdKEMjTilbTkhdQyg9TylbQ0BASF0oW05IXVtDQEhdMzQpW0NAQEhdKFtDSDJdW0NIMl0zKVtDSDJdW0NIMl00

> <s_epik_cmdline>
J2VwaWtfcHl0aG9uJywgJy1waHQnLCAnMC41JywgJy1waCcsICc3LjUnLCAnLW50JywgJy1tYScsICcyMDAnLCAnLWltYWUnLCAnPGluZmlsZS5tYWU+JywgJy1vbWFlJywgJzxvdXRmaWxlLm1hZT4n

> <r_epik_Ionization_Penalty>
  0.4114

> <r_epik_Ionization_Penalty_Charging>
  0.4113

> <r_epik_Ionization_Penalty_Neutral>
  0.0002

> <r_epik_State_Penalty>
  0.4113

> <r_epik_Charging_Adjusted_Penalty>
0.822612897831462

> <i_epik_Tot_Q>
1

> <i_epik_Tot_abs_Q>
1

> <s_lp_Force_Field>
OPLS3e

> <r_lp_Energy>
53.027548

> <b_lp_Chiralities_Consistent>
1

> <s_lp_Variant>
sdf/inactives_sanitized.sdf:540-2

$$$$
sdf/inactives_sanitized.sdf:541
                    3D
 Schrodinger Suite 2020-1.
 74 76  0  0  1  0            999 V2000
   -0.9382   -3.5468   -1.5501 C   0  0  0  0  0  0
   -2.0501   -2.5082   -1.2977 C   0  0  0  0  0  0
   -1.9226   -1.6827    0.0201 C   0  0  2  0  0  0
   -0.6315   -0.9972    0.1708 N   0  0  0  0  0  0
   -0.1207   -0.0555   -0.6443 C   0  0  0  0  0  0
   -0.7553    0.3949   -1.5987 O   0  0  0  0  0  0
    1.2783    0.5305   -0.3016 C   0  0  2  0  0  0
    2.1329    0.7176   -1.5680 C   0  0  0  0  0  0
    2.9208   -0.5791   -1.7041 C   0  0  2  0  0  0
    3.1149   -1.1034   -0.2800 C   0  0  0  0  0  0
    2.1276   -0.3693    0.5160 N   0  0  0  0  0  0
    2.0841   -0.4902    1.9120 C   0  0  0  0  0  0
    2.8132   -1.2290    2.5763 O   0  0  0  0  0  0
    1.1228    0.3256    2.4451 O   0  0  0  0  0  0
    0.8375    0.4853    3.8463 C   0  0  0  0  0  0
    2.0603    1.0551    4.6066 C   0  0  0  0  0  0
    0.3523   -0.8380    4.4866 C   0  0  0  0  0  0
   -0.3104    1.5146    3.8788 C   0  0  0  0  0  0
    4.5584   -0.3510   -2.6334 S   0  0  0  0  0  0
    4.2697   -0.0609   -4.0420 O   0  0  0  0  0  0
    5.3936    0.5800   -1.8649 O   0  0  0  0  0  0
    5.3335   -1.9817   -2.5421 C   0  0  0  0  0  0
    6.3472   -2.1686   -1.5936 C   0  0  0  0  0  0
    6.9825   -3.4008   -1.4602 C   0  0  0  0  0  0
    6.6136   -4.4702   -2.2750 C   0  0  0  0  0  0
    7.3099   -5.8124   -2.1413 C   0  0  0  0  0  0
    5.6132   -4.2913   -3.2315 C   0  0  0  0  0  0
    4.9677   -3.0577   -3.3788 C   0  0  0  0  0  0
    3.8853   -2.9463   -4.4448 C   0  0  0  0  0  0
   -2.0633   -2.5793    1.2554 C   0  0  0  0  0  0
   -1.1261   -2.9330    1.9825 O   0  0  0  0  0  0
   -3.5417   -3.0619    1.5696 C   0  0  0  0  0  0
   -4.5139   -2.5995    0.9699 O   0  0  0  0  0  0
   -3.5829   -3.9982    2.5354 N   0  0  0  0  0  0
   -4.7961   -4.6941    2.9486 C   0  0  0  0  0  0
   -5.8902   -3.9173    3.6504 C   0  0  0  0  0  0
   -5.0434   -4.8986    4.4249 C   0  0  0  0  0  0
   -1.0975   -4.0601   -2.4986 H   0  0  0  0  0  0
   -0.9123   -4.3064   -0.7685 H   0  0  0  0  0  0
    0.0454   -3.0782   -1.5938 H   0  0  0  0  0  0
   -2.0658   -1.8220   -2.1448 H   0  0  0  0  0  0
   -3.0186   -3.0091   -1.3343 H   0  0  0  0  0  0
   -2.6948   -0.9108    0.0558 H   0  0  0  0  0  0
   -0.0853   -1.2923    0.9678 H   0  0  0  0  0  0
    1.1102    1.4791    0.2103 H   0  0  0  0  0  0
    1.5865    1.0082   -2.4670 H   0  0  0  0  0  0
    2.8134    1.5524   -1.3912 H   0  0  0  0  0  0
    2.3463   -1.2937   -2.2913 H   0  0  0  0  0  0
    3.0115   -2.1875   -0.2204 H   0  0  0  0  0  0
    4.1118   -0.8516    0.0853 H   0  0  0  0  0  0
    1.8035    1.3126    5.6349 H   0  0  0  0  0  0
    2.4375    1.9594    4.1274 H   0  0  0  0  0  0
    2.8865    0.3457    4.6501 H   0  0  0  0  0  0
    1.1213   -1.6099    4.4818 H   0  0  0  0  0  0
   -0.5117   -1.2392    3.9570 H   0  0  0  0  0  0
    0.0557   -0.6894    5.5256 H   0  0  0  0  0  0
   -0.6299    1.7285    4.8996 H   0  0  0  0  0  0
   -1.1832    1.1559    3.3305 H   0  0  0  0  0  0
   -0.0135    2.4602    3.4226 H   0  0  0  0  0  0
    6.6482   -1.3615   -0.9421 H   0  0  0  0  0  0
    7.7595   -3.5212   -0.7190 H   0  0  0  0  0  0
    7.4477   -6.2717   -3.1209 H   0  0  0  0  0  0
    6.7193   -6.4909   -1.5253 H   0  0  0  0  0  0
    8.3024   -5.7045   -1.7017 H   0  0  0  0  0  0
    5.3367   -5.1215   -3.8661 H   0  0  0  0  0  0
    3.5574   -3.9255   -4.7964 H   0  0  0  0  0  0
    4.2499   -2.3767   -5.2997 H   0  0  0  0  0  0
    2.9981   -2.4476   -4.0609 H   0  0  0  0  0  0
   -2.7102   -4.3412    2.9107 H   0  0  0  0  0  0
   -5.1028   -5.4808    2.2577 H   0  0  0  0  0  0
   -5.7517   -2.8485    3.8185 H   0  0  0  0  0  0
   -6.9262   -4.1699    3.4246 H   0  0  0  0  0  0
   -4.3105   -4.5196    5.1382 H   0  0  0  0  0  0
   -5.4842   -5.8423    4.7465 H   0  0  0  0  0  0
  1  2  1  0  0  0
  1 38  1  0  0  0
  1 39  1  0  0  0
  1 40  1  0  0  0
  2  3  1  0  0  0
  2 41  1  0  0  0
  2 42  1  0  0  0
  3  4  1  0  0  0
  3 30  1  0  0  0
  3 43  1  0  0  0
  4  5  1  0  0  0
  4 44  1  0  0  0
  5  6  2  0  0  0
  5  7  1  0  0  0
  7  8  1  0  0  0
  7 11  1  0  0  0
  7 45  1  0  0  0
  8  9  1  0  0  0
  8 46  1  0  0  0
  8 47  1  0  0  0
  9 10  1  0  0  0
  9 19  1  0  0  0
  9 48  1  0  0  0
 10 11  1  0  0  0
 10 49  1  0  0  0
 10 50  1  0  0  0
 11 12  1  0  0  0
 12 13  2  0  0  0
 12 14  1  0  0  0
 14 15  1  0  0  0
 15 16  1  0  0  0
 15 17  1  0  0  0
 15 18  1  0  0  0
 16 51  1  0  0  0
 16 52  1  0  0  0
 16 53  1  0  0  0
 17 54  1  0  0  0
 17 55  1  0  0  0
 17 56  1  0  0  0
 18 57  1  0  0  0
 18 58  1  0  0  0
 18 59  1  0  0  0
 19 20  2  0  0  0
 19 21  2  0  0  0
 19 22  1  0  0  0
 22 23  2  0  0  0
 22 28  1  0  0  0
 23 24  1  0  0  0
 23 60  1  0  0  0
 24 25  2  0  0  0
 24 61  1  0  0  0
 25 26  1  0  0  0
 25 27  1  0  0  0
 26 62  1  0  0  0
 26 63  1  0  0  0
 26 64  1  0  0  0
 27 28  2  0  0  0
 27 65  1  0  0  0
 28 29  1  0  0  0
 29 66  1  0  0  0
 29 67  1  0  0  0
 29 68  1  0  0  0
 30 31  2  0  0  0
 30 32  1  0  0  0
 32 33  2  0  0  0
 32 34  1  0  0  0
 34 35  1  0  0  0
 34 69  1  0  0  0
 35 36  1  0  0  0
 35 37  1  0  0  0
 35 70  1  0  0  0
 36 37  1  0  0  0
 36 71  1  0  0  0
 36 72  1  0  0  0
 37 73  1  0  0  0
 37 74  1  0  0  0
M  END
> <chembl_id>
CHEMBL3649362

> <chembl_pref_name>
None

> <i_m_ct_stereo_status>
1

> <s_m_source_file>
sdf/inactives_sanitized.sdf

> <i_m_source_file_index>
541

> <i_lp_mmshare_version>
49012

> <i_f3d_flags>
0

> <s_epik_input>
W0NIMl0xW0NIMl1bQ0hdMVtOSF1DKD1PKUMoPU8pW0NASF0oW0NIMl1bQ0gzXSlbTkhdQyg9TylbQ0BASF0yW0NIMl1bQ0BIXShbQ0gyXU4yQyg9TylPQyhbQ0gzXSkoW0NIM10pW0NIM10pUyg9TykoPU8pYzNbY0hdW2NIXWMoW0NIM10pW2NIXWMzW0NIM10=

> <s_epik_cmdline>
J2VwaWtfcHl0aG9uJywgJy1waHQnLCAnMC41JywgJy1waCcsICc3LjUnLCAnLW50JywgJy1tYScsICcyMDAnLCAnLWltYWUnLCAnPGluZmlsZS5tYWU+JywgJy1vbWFlJywgJzxvdXRmaWxlLm1hZT4n

> <r_lp_tautomer_probability>
1

> <r_epik_Ionization_Penalty>
  0.0000

> <r_epik_Ionization_Penalty_Charging>
  0.0000

> <r_epik_Ionization_Penalty_Neutral>
  0.0000

> <r_epik_State_Penalty>
 -0.0000

> <r_epik_Charging_Adjusted_Penalty>
0

> <i_epik_Tot_Q>
0

> <i_epik_Tot_abs_Q>
0

> <s_epik_Chemistry_Notes>
This compound has an ester and may undergo hydrolysis at high or low pH.

> <s_lp_Force_Field>
OPLS3e

> <r_lp_Energy>
20.423334

> <b_lp_Chiralities_Consistent>
1

> <s_lp_Variant>
sdf/inactives_sanitized.sdf:541-1

$$$$
sdf/inactives_sanitized.sdf:542
                    3D
 Schrodinger Suite 2020-1.
 52 52  0  0  1  0            999 V2000
   -2.3679    3.0016    0.0904 C   0  0  0  0  0  0
   -3.7598    3.0202    0.0984 C   0  0  0  0  0  0
   -4.4551    4.2261    0.0753 C   0  0  0  0  0  0
   -3.7803    5.4593    0.0438 C   0  0  0  0  0  0
   -2.3735    5.4227    0.0396 C   0  0  0  0  0  0
   -1.6756    4.2187    0.0623 C   0  0  0  0  0  0
   -1.7645    1.7586    0.1102 O   0  0  0  0  0  0
   -4.5128    6.7612    0.0155 C   0  0  0  0  0  0
   -6.0554    6.6648    0.0044 C   0  0  0  0  0  0
   -3.8497    7.8617    0.0053 N   0  0  0  0  0  0
   -4.5432    9.0245   -0.0222 N   0  0  0  0  0  0
   -3.9828   10.2696   -0.0282 C   0  0  0  0  0  0
   -4.8866   11.2726   -0.0593 N   0  0  0  0  0  0
   -2.3557   10.6454   -0.0010 S   0  0  0  0  0  0
   -0.3423    1.6727    0.0886 C   0  0  0  0  0  0
    0.0643    0.1917    0.0741 C   0  0  0  0  0  0
    1.5901   -0.0082    0.0396 C   0  0  0  0  0  0
    2.0026   -1.4903   -0.0028 C   0  0  0  0  0  0
    3.5314   -1.6834   -0.0401 C   0  0  0  0  0  0
    3.9880   -3.1558   -0.0286 C   0  0  0  0  0  0
    3.6248   -3.9436   -1.3024 C   0  0  0  0  0  0
    4.1780   -5.3793   -1.2957 C   0  0  0  0  0  0
    3.8385   -6.1561   -2.5749 C   0  0  0  0  0  0
   -4.3096    2.0907    0.1213 H   0  0  0  0  0  0
   -5.5329    4.1693    0.0826 H   0  0  0  0  0  0
   -1.7929    6.3342    0.0166 H   0  0  0  0  0  0
   -0.5968    4.2530    0.0569 H   0  0  0  0  0  0
   -6.4056    6.1128   -0.8684 H   0  0  0  0  0  0
   -6.5636    7.6274   -0.0315 H   0  0  0  0  0  0
   -6.4207    6.1718    0.9059 H   0  0  0  0  0  0
   -5.5480    8.9261   -0.0351 H   0  0  0  0  0  0
   -5.8737   11.0628   -0.0854 H   0  0  0  0  0  0
   -4.5673   12.2308   -0.0542 H   0  0  0  0  0  0
    0.0517    2.1703   -0.7999 H   0  0  0  0  0  0
    0.0754    2.1646    0.9692 H   0  0  0  0  0  0
   -0.3485   -0.3040    0.9541 H   0  0  0  0  0  0
   -0.3859   -0.2946   -0.7927 H   0  0  0  0  0  0
    2.0014    0.5048   -0.8313 H   0  0  0  0  0  0
    2.0368    0.4675    0.9142 H   0  0  0  0  0  0
    1.5944   -2.0050    0.8682 H   0  0  0  0  0  0
    1.5492   -1.9597   -0.8765 H   0  0  0  0  0  0
    3.9447   -1.1827   -0.9171 H   0  0  0  0  0  0
    3.9706   -1.1808    0.8229 H   0  0  0  0  0  0
    5.0712   -3.1768    0.1004 H   0  0  0  0  0  0
    3.5744   -3.6591    0.8466 H   0  0  0  0  0  0
    2.5410   -3.9820   -1.4177 H   0  0  0  0  0  0
    4.0073   -3.4131   -2.1759 H   0  0  0  0  0  0
    5.2616   -5.3545   -1.1717 H   0  0  0  0  0  0
    3.7843   -5.9199   -0.4337 H   0  0  0  0  0  0
    4.2457   -7.1667   -2.5359 H   0  0  0  0  0  0
    4.2536   -5.6666   -3.4566 H   0  0  0  0  0  0
    2.7601   -6.2388   -2.7138 H   0  0  0  0  0  0
  1  2  2  0  0  0
  1  6  1  0  0  0
  1  7  1  0  0  0
  2  3  1  0  0  0
  2 24  1  0  0  0
  3  4  2  0  0  0
  3 25  1  0  0  0
  4  5  1  0  0  0
  4  8  1  0  0  0
  5  6  2  0  0  0
  5 26  1  0  0  0
  6 27  1  0  0  0
  7 15  1  0  0  0
  8  9  1  0  0  0
  8 10  2  0  0  0
  9 28  1  0  0  0
  9 29  1  0  0  0
  9 30  1  0  0  0
 10 11  1  0  0  0
 11 12  1  0  0  0
 11 31  1  0  0  0
 12 13  1  0  0  0
 12 14  2  0  0  0
 13 32  1  0  0  0
 13 33  1  0  0  0
 15 16  1  0  0  0
 15 34  1  0  0  0
 15 35  1  0  0  0
 16 17  1  0  0  0
 16 36  1  0  0  0
 16 37  1  0  0  0
 17 18  1  0  0  0
 17 38  1  0  0  0
 17 39  1  0  0  0
 18 19  1  0  0  0
 18 40  1  0  0  0
 18 41  1  0  0  0
 19 20  1  0  0  0
 19 42  1  0  0  0
 19 43  1  0  0  0
 20 21  1  0  0  0
 20 44  1  0  0  0
 20 45  1  0  0  0
 21 22  1  0  0  0
 21 46  1  0  0  0
 21 47  1  0  0  0
 22 23  1  0  0  0
 22 48  1  0  0  0
 22 49  1  0  0  0
 23 50  1  0  0  0
 23 51  1  0  0  0
 23 52  1  0  0  0
M  END
> <chembl_id>
CHEMBL2316594

> <chembl_pref_name>
None

> <s_m_source_file>
sdf/inactives_sanitized.sdf

> <i_m_source_file_index>
542

> <i_lp_mmshare_version>
49012

> <i_m_ct_stereo_status>
1

> <i_f3d_flags>
0

> <s_epik_input>
W05IMl1DKD1TKVtOSF1cTj1DKFtDSDNdKVxjKFtjSF1bY0hdMSlbY0hdW2NIXWMxT1tDSDJdW0NIMl1bQ0gyXVtDSDJdW0NIMl1bQ0gyXVtDSDJdW0NIMl1bQ0gzXQ==

> <s_epik_cmdline>
J2VwaWtfcHl0aG9uJywgJy1waHQnLCAnMC41JywgJy1waCcsICc3LjUnLCAnLW50JywgJy1tYScsICcyMDAnLCAnLWltYWUnLCAnPGluZmlsZS5tYWU+JywgJy1vbWFlJywgJzxvdXRmaWxlLm1hZT4n

> <r_lp_tautomer_probability>
1

> <r_epik_Ionization_Penalty>
  0.0000

> <r_epik_Ionization_Penalty_Charging>
  0.0000

> <r_epik_Ionization_Penalty_Neutral>
  0.0000

> <r_epik_State_Penalty>
 -0.0000

> <r_epik_Charging_Adjusted_Penalty>
0

> <i_epik_Tot_Q>
0

> <i_epik_Tot_abs_Q>
0

> <s_epik_Chemistry_Notes>
This compound has an imine and may undergo hydrolysis.

> <s_lp_Force_Field>
OPLS3e

> <r_lp_Energy>
41.079783

> <b_lp_Chiralities_Consistent>
1

> <s_lp_Variant>
sdf/inactives_sanitized.sdf:542-1

$$$$
sdf/inactives_sanitized.sdf:543
                    3D
 Schrodinger Suite 2020-1.
 56 57  0  0  1  0            999 V2000
   -0.5144    2.2461    7.1112 O   0  0  0  0  0  0
   -0.5961    2.1596    5.6496 S   0  0  0  0  0  0
   -0.7578    3.3791    4.8498 O   0  0  0  0  0  0
   -4.3445   -1.4114    3.4909 C   0  0  1  0  0  0
   -4.6159   -0.9444    1.1400 O   0  0  0  0  0  0
   -4.9677   -2.8093    3.6068 C   0  0  0  0  0  0
   -3.8253   -1.1771    2.0566 C   0  0  0  0  0  0
   -2.4936   -1.2551    1.8779 N   0  0  0  0  0  0
   -1.7919   -1.0928    0.5991 C   0  0  2  0  0  0
    0.2662   -2.0105    1.6175 O   0  0  0  0  0  0
   -0.2814   -1.2226    0.8433 C   0  0  0  0  0  0
    0.3040   -0.3019    0.0358 N   0  0  0  0  0  0
    1.7588   -0.1173   -0.0591 C   0  0  0  0  0  0
    2.2244    2.0634    0.8251 O   0  0  0  0  0  0
    2.2017    0.8522    1.0452 C   0  0  0  0  0  0
    2.5168    0.3002    2.2303 N   0  0  0  0  0  0
   -4.2541   -3.8398    4.2322 C   0  0  0  0  0  0
   -4.8004   -5.1198    4.3350 C   0  0  0  0  0  0
   -6.0646   -5.3830    3.8081 C   0  0  0  0  0  0
   -6.7811   -4.3672    3.1756 C   0  0  0  0  0  0
   -6.2344   -3.0875    3.0730 C   0  0  0  0  0  0
   -8.3427   -4.6932    2.5174 Cl  0  0  0  0  0  0
    2.8078    1.0423    3.4548 C   0  0  0  0  0  0
    1.5777    1.7255    4.0328 C   0  0  0  0  0  0
   -3.9109   -6.3773    5.1134 Cl  0  0  0  0  0  0
    0.8616    1.2731    5.0780 C   0  0  0  0  0  0
   -2.0010    0.9833    5.2058 C   0  0  0  0  0  0
   -1.9509    0.2894   -0.0228 C   0  0  0  0  0  0
   -0.6283    0.5254   -0.7243 C   0  0  0  0  0  0
   -5.2800   -0.2643    3.9618 C   0  0  0  0  0  0
   -5.7039   -0.3701    5.4358 C   0  0  0  0  0  0
   -3.4803   -1.3859    4.1587 H   0  0  0  0  0  0
   -1.9256   -1.5633    2.6539 H   0  0  0  0  0  0
   -2.1031   -1.8504   -0.1235 H   0  0  0  0  0  0
    2.2743   -1.0730    0.0505 H   0  0  0  0  0  0
    2.0553    0.2706   -1.0342 H   0  0  0  0  0  0
    2.4287   -0.7013    2.3278 H   0  0  0  0  0  0
   -3.2722   -3.6491    4.6413 H   0  0  0  0  0  0
   -6.4875   -6.3741    3.8871 H   0  0  0  0  0  0
   -6.7956   -2.3118    2.5730 H   0  0  0  0  0  0
    3.1981    0.3229    4.1768 H   0  0  0  0  0  0
    3.6111    1.7631    3.2916 H   0  0  0  0  0  0
    1.2811    2.6354    3.5313 H   0  0  0  0  0  0
    1.1131    0.3699    5.6137 H   0  0  0  0  0  0
   -2.9433    1.4285    5.5231 H   0  0  0  0  0  0
   -1.8484    0.0335    5.7174 H   0  0  0  0  0  0
   -2.0079    0.8307    4.1266 H   0  0  0  0  0  0
   -2.7912    0.3562   -0.7148 H   0  0  0  0  0  0
   -2.1049    1.0502    0.7459 H   0  0  0  0  0  0
   -0.6592    0.1837   -1.7597 H   0  0  0  0  0  0
   -0.3394    1.5772   -0.7096 H   0  0  0  0  0  0
   -4.7767    0.6942    3.8232 H   0  0  0  0  0  0
   -6.1731   -0.2129    3.3375 H   0  0  0  0  0  0
   -6.3238    0.4797    5.7229 H   0  0  0  0  0  0
   -4.8372   -0.3846    6.0973 H   0  0  0  0  0  0
   -6.2824   -1.2752    5.6223 H   0  0  0  0  0  0
  1  2  2  0  0  0
  2  3  2  0  0  0
  2 26  1  0  0  0
  2 27  1  0  0  0
  4  7  1  0  0  0
  4  6  1  0  0  0
  4 30  1  0  0  0
  4 32  1  0  0  0
  5  7  2  0  0  0
  6 17  2  0  0  0
  6 21  1  0  0  0
  7  8  1  0  0  0
  8  9  1  0  0  0
  8 33  1  0  0  0
  9 11  1  0  0  0
  9 28  1  0  0  0
  9 34  1  0  0  0
 10 11  2  0  0  0
 11 12  1  0  0  0
 12 13  1  0  0  0
 12 29  1  0  0  0
 13 15  1  0  0  0
 13 35  1  0  0  0
 13 36  1  0  0  0
 14 15  2  0  0  0
 15 16  1  0  0  0
 16 23  1  0  0  0
 16 37  1  0  0  0
 17 18  1  0  0  0
 17 38  1  0  0  0
 18 19  2  0  0  0
 18 25  1  0  0  0
 19 20  1  0  0  0
 19 39  1  0  0  0
 20 21  2  0  0  0
 20 22  1  0  0  0
 21 40  1  0  0  0
 23 24  1  0  0  0
 23 41  1  0  0  0
 23 42  1  0  0  0
 24 26  2  0  0  0
 24 43  1  0  0  0
 26 44  1  0  0  0
 27 45  1  0  0  0
 27 46  1  0  0  0
 27 47  1  0  0  0
 28 29  1  0  0  0
 28 48  1  0  0  0
 28 49  1  0  0  0
 29 50  1  0  0  0
 29 51  1  0  0  0
 30 31  1  0  0  0
 30 52  1  0  0  0
 30 53  1  0  0  0
 31 54  1  0  0  0
 31 55  1  0  0  0
 31 56  1  0  0  0
M  END
> <chembl_id>
CHEMBL3354499

> <chembl_pref_name>
None

> <i_m_ct_stereo_status>
1

> <s_m_source_file>
sdf/inactives_sanitized.sdf

> <i_m_source_file_index>
543

> <i_lp_mmshare_version>
49012

> <i_f3d_flags>
0

> <s_epik_input>
Tz1TKD1PKShbQ0gzXSlcW0NIXT1bQ0hdXFtDSDJdW05IXUMoPU8pW0NIMl1OKFtDSDJdW0NIMl0xKUMoPU8pW0NASF0xW05IXUMoPU8pW0NAQEhdKFtDSDJdW0NIM10pYzJbY0hdYyhDbClbY0hdYyhDbClbY0hdMg==

> <s_epik_cmdline>
J2VwaWtfcHl0aG9uJywgJy1waHQnLCAnMC41JywgJy1waCcsICc3LjUnLCAnLW50JywgJy1tYScsICcyMDAnLCAnLWltYWUnLCAnPGluZmlsZS5tYWU+JywgJy1vbWFlJywgJzxvdXRmaWxlLm1hZT4n

> <r_lp_tautomer_probability>
1

> <r_epik_Ionization_Penalty>
  0.0000

> <r_epik_Ionization_Penalty_Charging>
  0.0000

> <r_epik_Ionization_Penalty_Neutral>
  0.0000

> <r_epik_State_Penalty>
 -0.0000

> <r_epik_Charging_Adjusted_Penalty>
0

> <i_epik_Tot_Q>
0

> <i_epik_Tot_abs_Q>
0

> <s_lp_Force_Field>
OPLS3e

> <r_lp_Energy>
-3.208894

> <b_lp_Chiralities_Consistent>
1

> <s_lp_Variant>
sdf/inactives_sanitized.sdf:543-1

$$$$
sdf/inactives_sanitized.sdf:544
                    3D
 Schrodinger Suite 2020-1.
 33 34  0  0  1  0            999 V2000
   -1.4140   -1.8453    0.5861 C   0  0  2  0  0  0
   -0.7627   -0.5082    0.9583 C   0  0  0  0  0  0
   -0.0913   -0.0228   -0.3294 C   0  0  2  0  0  0
   -0.4414   -1.0875   -1.3733 C   0  0  0  0  0  0
   -1.6708   -1.6538   -0.8378 N   0  0  1  0  0  0
    1.3571    0.2345   -0.2045 N   0  0  1  0  0  0
    1.9646    1.8816   -0.0674 S   0  0  0  0  0  0
    1.3667    2.4530    1.5188 C   0  0  0  0  0  0
    0.6015    3.6194    1.6185 C   0  0  0  0  0  0
    0.1316    4.0406    2.8631 C   0  0  0  0  0  0
    0.4228    3.2989    4.0085 C   0  0  0  0  0  0
    1.1878    2.1358    3.9109 C   0  0  0  0  0  0
    1.6626    1.7151    2.6683 C   0  0  0  0  0  0
    3.4253    1.8043    0.0407 O   0  0  0  0  0  0
    1.3259    2.6943   -1.1095 O   0  0  0  0  0  0
    1.5803    1.1193    5.4713 Br  0  0  0  0  0  0
   -2.6726   -2.1813    1.4063 C   0  0  0  0  0  0
   -2.2690   -2.6312   -1.5449 C   0  0  0  0  0  0
   -2.8303   -3.4517   -2.1376 N   0  0  0  0  0  0
   -0.6906   -2.6549    0.7060 H   0  0  0  0  0  0
   -1.5117    0.2202    1.2750 H   0  0  0  0  0  0
   -0.0646   -0.6322    1.7877 H   0  0  0  0  0  0
   -0.5298    0.9348   -0.6148 H   0  0  0  0  0  0
    0.3290   -1.8576   -1.4481 H   0  0  0  0  0  0
   -0.5877   -0.6509   -2.3620 H   0  0  0  0  0  0
    1.9357   -0.5211    0.1720 H   0  0  0  0  0  0
    0.3667    4.2012    0.7392 H   0  0  0  0  0  0
   -0.4596    4.9413    2.9396 H   0  0  0  0  0  0
    0.0548    3.6264    4.9698 H   0  0  0  0  0  0
    2.2533    0.8132    2.5965 H   0  0  0  0  0  0
   -2.4368   -2.2550    2.4683 H   0  0  0  0  0  0
   -3.1003   -3.1368    1.1007 H   0  0  0  0  0  0
   -3.4451   -1.4202    1.2884 H   0  0  0  0  0  0
  1  5  1  0  0  0
  1  2  1  0  0  0
  1 17  1  0  0  0
  1 20  1  0  0  0
  2  3  1  0  0  0
  2 21  1  0  0  0
  2 22  1  0  0  0
  3  6  1  0  0  0
  3  4  1  0  0  0
  3 23  1  0  0  0
  4  5  1  0  0  0
  4 24  1  0  0  0
  4 25  1  0  0  0
  5 18  1  0  0  0
  6  7  1  0  0  0
  6 26  1  0  0  0
  7 14  2  0  0  0
  7 15  2  0  0  0
  7  8  1  0  0  0
  8 13  2  0  0  0
  8  9  1  0  0  0
  9 10  2  0  0  0
  9 27  1  0  0  0
 10 11  1  0  0  0
 10 28  1  0  0  0
 11 12  2  0  0  0
 11 29  1  0  0  0
 12 13  1  0  0  0
 12 16  1  0  0  0
 13 30  1  0  0  0
 17 31  1  0  0  0
 17 32  1  0  0  0
 17 33  1  0  0  0
 18 19  3  0  0  0
M  END
> <chembl_id>
CHEMBL1672430

> <chembl_pref_name>
None

> <i_m_ct_stereo_status>
1

> <s_m_source_file>
sdf/inactives_sanitized.sdf

> <i_m_source_file_index>
544

> <i_lp_mmshare_version>
49012

> <i_f3d_flags>
0

> <s_epik_input>
TiNDTjFbQ0gyXVtDQEBIXShbQ0gyXVtDQEhdMVtDSDNdKVtOSF1TKD1PKSg9TyljMltjSF1bY0hdW2NIXWMoQnIpW2NIXTI=

> <s_epik_cmdline>
J2VwaWtfcHl0aG9uJywgJy1waHQnLCAnMC41JywgJy1waCcsICc3LjUnLCAnLW50JywgJy1tYScsICcyMDAnLCAnLWltYWUnLCAnPGluZmlsZS5tYWU+JywgJy1vbWFlJywgJzxvdXRmaWxlLm1hZT4n

> <r_lp_tautomer_probability>
1

> <r_epik_Ionization_Penalty>
  0.0005

> <r_epik_Ionization_Penalty_Charging>
  0.0000

> <r_epik_Ionization_Penalty_Neutral>
  0.0005

> <r_epik_State_Penalty>
 -0.0000

> <r_epik_Charging_Adjusted_Penalty>
0

> <i_epik_Tot_Q>
0

> <i_epik_Tot_abs_Q>
0

> <s_lp_Force_Field>
OPLS3e

> <r_lp_Energy>
11.415025

> <b_lp_Chiralities_Consistent>
1

> <s_lp_Variant>
sdf/inactives_sanitized.sdf:544-1

$$$$
sdf/inactives_sanitized.sdf:545
                    3D
 Schrodinger Suite 2020-1.
 36 35  0  0  1  0            999 V2000
   -0.6565    1.2249   -0.1367 C   0  0  0  0  0  0
    0.0511    0.0322   -0.0554 N   0  0  0  0  0  0
    1.5208    0.0227    0.0161 C   0  0  1  0  0  0
   -1.9854    0.9393   -0.0922 O   0  0  0  0  0  0
    2.0995   -0.1154    1.4777 C   0  0  0  0  0  0
   -0.1743    2.3562   -0.2191 O   0  0  0  0  0  0
   -3.0489    1.9103   -0.1004 C   0  0  0  0  0  0
    2.6945   -1.0750   -1.7832 O   0  0  0  0  0  0
    1.8627   -1.1517   -0.8803 C   0  0  0  0  0  0
    1.7535    1.1590    2.2902 C   0  0  0  0  0  0
    3.6457   -0.2450    1.4716 C   0  0  0  0  0  0
    1.4956   -1.3251    2.2434 C   0  0  0  0  0  0
   -3.0505    2.7393   -1.4087 C   0  0  0  0  0  0
   -2.9761    2.8342    1.1407 C   0  0  0  0  0  0
   -4.3377    1.0654   -0.0320 C   0  0  0  0  0  0
   -0.4469   -0.8177    0.1653 H   0  0  0  0  0  0
    1.9497    0.9203   -0.4383 H   0  0  0  0  0  0
    1.3496   -2.0876   -0.6552 H   0  0  0  0  0  0
    2.1920    1.1286    3.2888 H   0  0  0  0  0  0
    0.6788    1.2796    2.4301 H   0  0  0  0  0  0
    2.1288    2.0607    1.8041 H   0  0  0  0  0  0
    4.1180    0.6200    1.0038 H   0  0  0  0  0  0
    3.9834   -1.1362    0.9419 H   0  0  0  0  0  0
    4.0449   -0.3176    2.4844 H   0  0  0  0  0  0
    1.9250   -1.4160    3.2422 H   0  0  0  0  0  0
    1.6862   -2.2704    1.7351 H   0  0  0  0  0  0
    0.4171   -1.2278    2.3750 H   0  0  0  0  0  0
   -3.9358    3.3729   -1.4758 H   0  0  0  0  0  0
   -3.0436    2.0925   -2.2869 H   0  0  0  0  0  0
   -2.1826    3.3942   -1.4840 H   0  0  0  0  0  0
   -2.1011    3.4837    1.1208 H   0  0  0  0  0  0
   -2.9252    2.2544    2.0631 H   0  0  0  0  0  0
   -3.8526    3.4798    1.2076 H   0  0  0  0  0  0
   -5.2301    1.6926   -0.0276 H   0  0  0  0  0  0
   -4.3658    0.4503    0.8688 H   0  0  0  0  0  0
   -4.4176    0.3881   -0.8837 H   0  0  0  0  0  0
  1  2  1  0  0  0
  1  4  1  0  0  0
  1  6  2  0  0  0
  2  3  1  0  0  0
  2 16  1  0  0  0
  3  5  1  0  0  0
  3  9  1  0  0  0
  3 17  1  0  0  0
  4  7  1  0  0  0
  5 10  1  0  0  0
  5 11  1  0  0  0
  5 12  1  0  0  0
  7 13  1  0  0  0
  7 14  1  0  0  0
  7 15  1  0  0  0
  8  9  2  0  0  0
  9 18  1  0  0  0
 10 19  1  0  0  0
 10 20  1  0  0  0
 10 21  1  0  0  0
 11 22  1  0  0  0
 11 23  1  0  0  0
 11 24  1  0  0  0
 12 25  1  0  0  0
 12 26  1  0  0  0
 12 27  1  0  0  0
 13 28  1  0  0  0
 13 29  1  0  0  0
 13 30  1  0  0  0
 14 31  1  0  0  0
 14 32  1  0  0  0
 14 33  1  0  0  0
 15 34  1  0  0  0
 15 35  1  0  0  0
 15 36  1  0  0  0
M  END
> <chembl_id>
CHEMBL94782

> <chembl_pref_name>
None

> <i_m_ct_stereo_status>
1

> <s_m_source_file>
sdf/inactives_sanitized.sdf

> <i_m_source_file_index>
545

> <i_lp_mmshare_version>
49012

> <i_f3d_flags>
0

> <s_epik_input>
W0NIM11DKFtDSDNdKShbQ0gzXSlPQyg9TylbTkhdW0NASF0oW0NIXT1PKUMoW0NIM10pKFtDSDNdKVtDSDNd

> <s_epik_cmdline>
J2VwaWtfcHl0aG9uJywgJy1waHQnLCAnMC41JywgJy1waCcsICc3LjUnLCAnLW50JywgJy1tYScsICcyMDAnLCAnLWltYWUnLCAnPGluZmlsZS5tYWU+JywgJy1vbWFlJywgJzxvdXRmaWxlLm1hZT4n

> <r_lp_tautomer_probability>
1

> <r_epik_Ionization_Penalty>
  0.0001

> <r_epik_Ionization_Penalty_Charging>
  0.0000

> <r_epik_Ionization_Penalty_Neutral>
  0.0001

> <r_epik_State_Penalty>
 -0.0000

> <r_epik_Charging_Adjusted_Penalty>
0

> <i_epik_Tot_Q>
0

> <i_epik_Tot_abs_Q>
0

> <s_epik_Chemistry_Notes>
This compound has an ester and may undergo hydrolysis at high or low pH.

> <s_lp_Force_Field>
OPLS3e

> <r_lp_Energy>
14.559527

> <b_lp_Chiralities_Consistent>
1

> <s_lp_Variant>
sdf/inactives_sanitized.sdf:545-1

$$$$
sdf/inactives_sanitized.sdf:546
                    3D
 Schrodinger Suite 2020-1.
 65 67  0  0  1  0            999 V2000
   -3.2526    1.4421    0.7655 N   0  0  2  0  0  0
   -1.1043    0.7862   -0.3046 C   0  0  0  0  0  0
   -2.5299    0.3252    0.0975 C   0  0  2  0  0  0
   -2.6739    1.7803    2.0846 C   0  0  0  0  0  0
   -0.0825   -0.0094    0.0702 N   0  0  0  0  0  0
   -3.0410    3.1921    2.5854 C   0  0  0  0  0  0
    1.7956    1.4723    0.7004 C   0  0  0  0  0  0
    2.4234    2.5783    0.2506 C   0  0  0  0  0  0
   -0.9419    1.8361   -0.9316 O   0  0  0  0  0  0
    1.3459    0.2678   -0.1283 C   0  0  2  0  0  0
   -3.9058    3.2875    3.4580 O   0  0  0  0  0  0
   -2.4028    4.3823    1.9339 C   0  0  0  0  0  0
    2.8174    3.7519    1.0574 C   0  0  0  0  0  0
   -4.6943    1.1612    0.9271 C   0  0  0  0  0  0
    1.7810    0.2748   -1.6238 C   0  0  0  0  0  0
   -3.2181   -0.1909   -1.2006 C   0  0  0  0  0  0
    1.3577   -0.9555   -2.4684 C   0  0  0  0  0  0
   -1.1803    4.2821    1.2538 C   0  0  0  0  0  0
   -3.0172    5.6378    2.0485 C   0  0  0  0  0  0
    3.7388    4.6543    0.5160 C   0  0  0  0  0  0
    2.2997    3.9862    2.3392 C   0  0  0  0  0  0
   -5.3898    0.7333   -0.3772 C   0  0  0  0  0  0
    1.9217   -2.2812   -1.9211 C   0  0  0  0  0  0
    1.7475   -0.7665   -3.9459 C   0  0  0  0  0  0
   -4.7076   -0.4860   -1.0009 C   0  0  0  0  0  0
   -2.4350    6.7640    1.4724 C   0  0  0  0  0  0
   -0.5990    5.4084    0.6777 C   0  0  0  0  0  0
    2.6952    5.1082    3.0625 C   0  0  0  0  0  0
    4.1374    5.7750    1.2398 C   0  0  0  0  0  0
    3.6132    5.9974    2.5104 C   0  0  0  0  0  0
   -1.2294    6.6442    0.7875 C   0  0  0  0  0  0
   -2.4221   -0.5094    0.7955 H   0  0  0  0  0  0
   -2.9933    1.0431    2.8233 H   0  0  0  0  0  0
   -1.5888    1.6938    2.0821 H   0  0  0  0  0  0
   -0.2979   -0.8218    0.6292 H   0  0  0  0  0  0
    1.5573    1.3948    1.7508 H   0  0  0  0  0  0
    2.6539    2.6467   -0.8023 H   0  0  0  0  0  0
    1.8635   -0.5700    0.3391 H   0  0  0  0  0  0
   -4.8203    0.3759    1.6751 H   0  0  0  0  0  0
   -5.1999    2.0412    1.3266 H   0  0  0  0  0  0
    1.3825    1.1707   -2.1024 H   0  0  0  0  0  0
    2.8664    0.3766   -1.6743 H   0  0  0  0  0  0
   -3.1244    0.5433   -2.0046 H   0  0  0  0  0  0
   -2.7167   -1.0905   -1.5623 H   0  0  0  0  0  0
    0.2694   -1.0281   -2.4403 H   0  0  0  0  0  0
   -0.6538    3.3448    1.1692 H   0  0  0  0  0  0
   -3.9528    5.7529    2.5777 H   0  0  0  0  0  0
    4.1511    4.4917   -0.4696 H   0  0  0  0  0  0
    1.5786    3.3157    2.7820 H   0  0  0  0  0  0
   -6.4328    0.4955   -0.1661 H   0  0  0  0  0  0
   -5.4199    1.5715   -1.0751 H   0  0  0  0  0  0
    3.0114   -2.2639   -1.8791 H   0  0  0  0  0  0
    1.6285   -3.1234   -2.5490 H   0  0  0  0  0  0
    1.5522   -2.4927   -0.9177 H   0  0  0  0  0  0
    2.8286   -0.6845   -4.0665 H   0  0  0  0  0  0
    1.2985    0.1367   -4.3609 H   0  0  0  0  0  0
    1.4087   -1.6048   -4.5558 H   0  0  0  0  0  0
   -4.8297   -1.3536   -0.3505 H   0  0  0  0  0  0
   -5.1765   -0.7398   -1.9522 H   0  0  0  0  0  0
   -2.9166    7.7269    1.5579 H   0  0  0  0  0  0
    0.3417    5.3231    0.1535 H   0  0  0  0  0  0
    2.2898    5.2891    4.0472 H   0  0  0  0  0  0
    4.8494    6.4687    0.8173 H   0  0  0  0  0  0
    3.9206    6.8674    3.0718 H   0  0  0  0  0  0
   -0.7765    7.5180    0.3425 H   0  0  0  0  0  0
  1  3  1  0  0  0
  1  4  1  0  0  0
  1 14  1  0  0  0
  2  3  1  0  0  0
  2  5  1  0  0  0
  2  9  2  0  0  0
  3 16  1  0  0  0
  3 32  1  0  0  0
  4  6  1  0  0  0
  4 33  1  0  0  0
  4 34  1  0  0  0
  5 10  1  0  0  0
  5 35  1  0  0  0
  6 11  2  0  0  0
  6 12  1  0  0  0
  7 10  1  0  0  0
  7  8  2  0  0  0
  7 36  1  0  0  0
  8 13  1  0  0  0
  8 37  1  0  0  0
 10 15  1  0  0  0
 10 38  1  0  0  0
 12 18  2  0  0  0
 12 19  1  0  0  0
 13 20  2  0  0  0
 13 21  1  0  0  0
 14 22  1  0  0  0
 14 39  1  0  0  0
 14 40  1  0  0  0
 15 17  1  0  0  0
 15 41  1  0  0  0
 15 42  1  0  0  0
 16 25  1  0  0  0
 16 43  1  0  0  0
 16 44  1  0  0  0
 17 23  1  0  0  0
 17 24  1  0  0  0
 17 45  1  0  0  0
 18 27  1  0  0  0
 18 46  1  0  0  0
 19 26  2  0  0  0
 19 47  1  0  0  0
 20 29  1  0  0  0
 20 48  1  0  0  0
 21 28  2  0  0  0
 21 49  1  0  0  0
 22 25  1  0  0  0
 22 50  1  0  0  0
 22 51  1  0  0  0
 23 52  1  0  0  0
 23 53  1  0  0  0
 23 54  1  0  0  0
 24 55  1  0  0  0
 24 56  1  0  0  0
 24 57  1  0  0  0
 25 58  1  0  0  0
 25 59  1  0  0  0
 26 31  1  0  0  0
 26 60  1  0  0  0
 27 31  2  0  0  0
 27 61  1  0  0  0
 28 30  1  0  0  0
 28 62  1  0  0  0
 29 30  2  0  0  0
 29 63  1  0  0  0
 30 64  1  0  0  0
 31 65  1  0  0  0
M  END
> <chembl_id>
CHEMBL101756

> <chembl_pref_name>
None

> <i_m_ct_stereo_status>
1

> <s_m_source_file>
sdf/inactives_sanitized.sdf

> <i_m_source_file_index>
546

> <i_lp_mmshare_version>
49012

> <i_f3d_flags>
0

> <s_epik_input>
W2NIXTFbY0hdW2NIXVtjSF1bY0hdYzFDKD1PKVtDSDJdTjJbQ0BASF0oW0NIMl1bQ0gyXVtDSDJdW0NIMl0yKUMoPU8pW05IXVtDQEBIXShbQ0gyXVtDSF0oW0NIM10pW0NIM10pL1tDSF09W0NIXS9jM1tjSF1bY0hdW2NIXVtjSF1bY0hdMw==

> <s_epik_cmdline>
J2VwaWtfcHl0aG9uJywgJy1waHQnLCAnMC41JywgJy1waCcsICc3LjUnLCAnLW50JywgJy1tYScsICcyMDAnLCAnLWltYWUnLCAnPGluZmlsZS5tYWU+JywgJy1vbWFlJywgJzxvdXRmaWxlLm1hZT4n

> <r_lp_tautomer_probability>
0.99990000499975

> <r_epik_Ionization_Penalty>
  0.0202

> <r_epik_Ionization_Penalty_Charging>
  0.0000

> <r_epik_Ionization_Penalty_Neutral>
  0.0202

> <r_epik_State_Penalty>
  0.0162

> <r_epik_Charging_Adjusted_Penalty>
0.0161663335032028

> <i_epik_Tot_Q>
0

> <i_epik_Tot_abs_Q>
0

> <s_lp_Force_Field>
OPLS3e

> <r_lp_Energy>
32.688642

> <b_lp_Chiralities_Consistent>
1

> <s_lp_Variant>
sdf/inactives_sanitized.sdf:546-1

$$$$
sdf/inactives_sanitized.sdf:547
                    3D
 Schrodinger Suite 2020-1.
 31 32  0  0  1  0            999 V2000
   -0.6422    1.2332    0.0503 C   0  0  0  0  0  0
    0.0146    0.0155   -0.0249 N   0  0  0  0  0  0
   -0.5545   -1.2467   -0.1580 C   0  0  0  0  0  0
   -1.9403   -1.2000   -0.0514 N   0  0  0  0  0  0
   -2.7083   -0.0352   -0.1227 N   0  0  0  0  0  0
   -2.0951    1.0858   -0.0478 C   0  0  0  0  0  0
    0.0909   -2.2901   -0.3110 O   0  0  0  0  0  0
   -2.9144    2.2792   -0.0735 C   0  0  0  0  0  0
   -3.6016    3.2104   -0.1052 N   0  0  0  0  0  0
   -0.0922    2.3306    0.1785 O   0  0  0  0  0  0
    1.4964    0.0682    0.0197 C   0  0  0  0  0  0
    2.0732   -0.0392    1.4454 C   0  0  0  0  0  0
    3.6048    0.0390    1.4644 C   0  0  0  0  0  0
   -2.7029   -2.3952   -0.0181 C   0  0  0  0  0  0
   -2.4410   -3.3771    0.9505 C   0  0  0  0  0  0
   -3.1971   -4.5456    0.9856 C   0  0  0  0  0  0
   -4.2179   -4.7363    0.0578 C   0  0  0  0  0  0
   -4.4912   -3.7692   -0.9062 C   0  0  0  0  0  0
   -3.7370   -2.5997   -0.9449 C   0  0  0  0  0  0
    1.9343   -0.7150   -0.6020 H   0  0  0  0  0  0
    1.8665    0.9845   -0.4445 H   0  0  0  0  0  0
    1.6724    0.7622    2.0678 H   0  0  0  0  0  0
    1.7620   -0.9806    1.9005 H   0  0  0  0  0  0
    3.9856   -0.0363    2.4833 H   0  0  0  0  0  0
    3.9577    0.9838    1.0492 H   0  0  0  0  0  0
    4.0503   -0.7696    0.8838 H   0  0  0  0  0  0
   -1.6552   -3.2366    1.6791 H   0  0  0  0  0  0
   -2.9937   -5.3009    1.7304 H   0  0  0  0  0  0
   -4.8042   -5.6431    0.0865 H   0  0  0  0  0  0
   -5.2848   -3.9260   -1.6219 H   0  0  0  0  0  0
   -3.9548   -1.8590   -1.7012 H   0  0  0  0  0  0
  1 10  2  0  0  0
  1  6  1  0  0  0
  1  2  1  0  0  0
  2  3  1  0  0  0
  2 11  1  0  0  0
  3  7  2  0  0  0
  3  4  1  0  0  0
  4  5  1  0  0  0
  4 14  1  0  0  0
  5  6  2  0  0  0
  6  8  1  0  0  0
  8  9  3  0  0  0
 11 12  1  0  0  0
 11 20  1  0  0  0
 11 21  1  0  0  0
 12 13  1  0  0  0
 12 22  1  0  0  0
 12 23  1  0  0  0
 13 24  1  0  0  0
 13 25  1  0  0  0
 13 26  1  0  0  0
 14 15  2  0  0  0
 14 19  1  0  0  0
 15 16  1  0  0  0
 15 27  1  0  0  0
 16 17  2  0  0  0
 16 28  1  0  0  0
 17 18  1  0  0  0
 17 29  1  0  0  0
 18 19  2  0  0  0
 18 30  1  0  0  0
 19 31  1  0  0  0
M  END
> <chembl_id>
CHEMBL1082251

> <chembl_pref_name>
None

> <s_m_source_file>
sdf/inactives_sanitized.sdf

> <i_m_source_file_index>
547

> <i_lp_mmshare_version>
49012

> <i_m_ct_stereo_status>
1

> <i_f3d_flags>
0

> <s_epik_input>
W0NIM11bQ0gyXVtDSDJdbihjMT1PKWMoPU8pbihuYzFDI04pLWMyW2NIXVtjSF1bY0hdW2NIXVtjSF0y

> <s_epik_cmdline>
J2VwaWtfcHl0aG9uJywgJy1waHQnLCAnMC41JywgJy1waCcsICc3LjUnLCAnLW50JywgJy1tYScsICcyMDAnLCAnLWltYWUnLCAnPGluZmlsZS5tYWU+JywgJy1vbWFlJywgJzxvdXRmaWxlLm1hZT4n

> <r_lp_tautomer_probability>
1

> <r_epik_Ionization_Penalty>
  0.0000

> <r_epik_Ionization_Penalty_Charging>
  0.0000

> <r_epik_Ionization_Penalty_Neutral>
  0.0000

> <r_epik_State_Penalty>
 -0.0000

> <r_epik_Charging_Adjusted_Penalty>
1.80616346230733e-12

> <i_epik_Tot_Q>
0

> <i_epik_Tot_abs_Q>
0

> <s_lp_Force_Field>
OPLS3e

> <r_lp_Energy>
53.368968

> <b_lp_Chiralities_Consistent>
1

> <s_lp_Variant>
sdf/inactives_sanitized.sdf:547-1

$$$$
sdf/inactives_sanitized.sdf:548
                    3D
 Schrodinger Suite 2020-1.
 51 53  0  0  1  0            999 V2000
    5.3111    3.2410   -0.6553 C   0  0  0  0  0  0
    3.9299    2.9134   -1.1815 C   0  0  0  0  0  0
    5.1575    2.6735   -2.0421 C   0  0  0  0  0  0
   -3.3386   -0.4837   -3.1361 C   0  0  0  0  0  0
   -3.7566    0.7036   -3.7318 C   0  0  0  0  0  0
   -3.1418    1.9120   -3.4131 C   0  0  0  0  0  0
   -2.0983    1.9333   -2.4917 C   0  0  0  0  0  0
   -1.6669    0.7480   -1.8867 C   0  0  0  0  0  0
   -2.2957   -0.4623   -2.2148 C   0  0  0  0  0  0
   -0.5101    0.8084   -0.8799 C   0  0  2  0  0  0
    0.3900   -0.3404   -1.0751 N   0  0  1  0  0  0
    1.7885   -0.2296   -0.5854 C   0  0  2  0  0  0
    2.5620    0.8642   -1.3611 C   0  0  0  0  0  0
    3.2380    1.7579   -0.6202 N   0  0  0  0  0  0
    2.5275    0.8863   -2.5929 O   0  0  0  0  0  0
    3.0467    4.0250   -1.5774 C   0  0  0  0  0  0
    2.3521    4.8967   -1.8877 N   0  0  0  0  0  0
    2.5425   -1.5797   -0.6622 C   0  0  0  0  0  0
   -1.0516    0.9206    0.5730 C   0  0  0  0  0  0
   -0.0835    1.0365    1.4811 F   0  0  0  0  0  0
   -1.8237    1.9995    0.7091 F   0  0  0  0  0  0
   -1.7911   -0.1346    0.9136 F   0  0  0  0  0  0
    2.2614   -2.7298    0.8177 S   0  0  0  0  0  0
    0.5027   -3.0610    0.8067 C   0  0  0  0  0  0
    2.9252   -4.0065    0.5343 O   0  0  0  0  0  0
    2.5738   -1.9911    2.0468 O   0  0  0  0  0  0
   -0.2906   -2.7462    1.9129 C   0  0  0  0  0  0
   -1.6597   -3.0097    1.8859 C   0  0  0  0  0  0
   -2.2468   -3.5764    0.7530 C   0  0  0  0  0  0
   -1.4521   -3.8965   -0.3561 C   0  0  0  0  0  0
   -0.0793   -3.6454   -0.3210 C   0  0  0  0  0  0
   -2.1369   -4.5925   -1.7836 Cl  0  0  0  0  0  0
   -3.9523   -3.8628    0.7503 Cl  0  0  0  0  0  0
    5.5969    4.2879   -0.5481 H   0  0  0  0  0  0
    5.7501    2.6090    0.1174 H   0  0  0  0  0  0
    5.4872    1.6501   -2.2253 H   0  0  0  0  0  0
    5.3367    3.3266   -2.8966 H   0  0  0  0  0  0
   -3.8207   -1.4172   -3.3873 H   0  0  0  0  0  0
   -4.5654    0.6875   -4.4475 H   0  0  0  0  0  0
   -3.4720    2.8286   -3.8794 H   0  0  0  0  0  0
   -1.6253    2.8742   -2.2500 H   0  0  0  0  0  0
   -1.9823   -1.3878   -1.7556 H   0  0  0  0  0  0
    0.0506    1.7158   -1.1081 H   0  0  0  0  0  0
   -0.0617   -1.1448   -0.6639 H   0  0  0  0  0  0
    1.8142    0.0512    0.4670 H   0  0  0  0  0  0
    3.1657    1.7150    0.3861 H   0  0  0  0  0  0
    2.2530   -2.1314   -1.5579 H   0  0  0  0  0  0
    3.6219   -1.4452   -0.7531 H   0  0  0  0  0  0
    0.1440   -2.2974    2.7940 H   0  0  0  0  0  0
   -2.2671   -2.7606    2.7438 H   0  0  0  0  0  0
    0.5327   -3.8946   -1.1759 H   0  0  0  0  0  0
  1  2  1  0  0  0
  1  3  1  0  0  0
  1 34  1  0  0  0
  1 35  1  0  0  0
  2 14  1  0  0  0
  2 16  1  0  0  0
  2  3  1  0  0  0
  3 36  1  0  0  0
  3 37  1  0  0  0
  4  9  2  0  0  0
  4  5  1  0  0  0
  4 38  1  0  0  0
  5  6  2  0  0  0
  5 39  1  0  0  0
  6  7  1  0  0  0
  6 40  1  0  0  0
  7  8  2  0  0  0
  7 41  1  0  0  0
  8  9  1  0  0  0
  8 10  1  0  0  0
  9 42  1  0  0  0
 10 11  1  0  0  0
 10 19  1  0  0  0
 10 43  1  0  0  0
 11 12  1  0  0  0
 11 44  1  0  0  0
 12 13  1  0  0  0
 12 18  1  0  0  0
 12 45  1  0  0  0
 13 14  1  0  0  0
 13 15  2  0  0  0
 14 46  1  0  0  0
 16 17  3  0  0  0
 18 23  1  0  0  0
 18 47  1  0  0  0
 18 48  1  0  0  0
 19 20  1  0  0  0
 19 21  1  0  0  0
 19 22  1  0  0  0
 23 24  1  0  0  0
 23 25  2  0  0  0
 23 26  2  0  0  0
 24 27  2  0  0  0
 24 31  1  0  0  0
 27 28  1  0  0  0
 27 49  1  0  0  0
 28 29  2  0  0  0
 28 50  1  0  0  0
 29 30  1  0  0  0
 29 33  1  0  0  0
 30 31  2  0  0  0
 30 32  1  0  0  0
 31 51  1  0  0  0
M  END
> <chembl_id>
CHEMBL443319

> <chembl_pref_name>
None

> <i_m_ct_stereo_status>
1

> <s_m_source_file>
sdf/inactives_sanitized.sdf

> <i_m_source_file_index>
548

> <i_lp_mmshare_version>
49012

> <i_f3d_flags>
0

> <s_epik_input>
W2NIXTFjKENsKWMoQ2wpW2NIXVtjSF1jMVMoPU8pKD1PKVtDSDJdW0NAQEhdKEMoPU8pW05IXUMyKEMjTilbQ0gyXVtDSDJdMilbTkhdW0NASF0oQyhGKShGKUYpYzNbY0hdW2NIXVtjSF1bY0hdW2NIXTM=

> <s_epik_cmdline>
J2VwaWtfcHl0aG9uJywgJy1waHQnLCAnMC41JywgJy1waCcsICc3LjUnLCAnLW50JywgJy1tYScsICcyMDAnLCAnLWltYWUnLCAnPGluZmlsZS5tYWU+JywgJy1vbWFlJywgJzxvdXRmaWxlLm1hZT4n

> <r_lp_tautomer_probability>
1

> <r_epik_Ionization_Penalty>
  0.0001

> <r_epik_Ionization_Penalty_Charging>
  0.0000

> <r_epik_Ionization_Penalty_Neutral>
  0.0001

> <r_epik_State_Penalty>
 -0.0000

> <r_epik_Charging_Adjusted_Penalty>
0

> <i_epik_Tot_Q>
0

> <i_epik_Tot_abs_Q>
0

> <s_lp_Force_Field>
OPLS3e

> <r_lp_Energy>
32.655373

> <b_lp_Chiralities_Consistent>
1

> <s_lp_Variant>
sdf/inactives_sanitized.sdf:548-1

$$$$
sdf/inactives_sanitized.sdf:549
                    3D
 Schrodinger Suite 2020-1.
 46 47  0  0  1  0            999 V2000
    0.7226   -2.6759    2.5157 C   0  0  0  0  0  0
    1.2149   -3.9810    2.5714 C   0  0  0  0  0  0
    0.9666   -4.8653    1.5213 C   0  0  0  0  0  0
    0.2244   -4.4457    0.4180 C   0  0  0  0  0  0
   -0.2672   -3.1414    0.3622 C   0  0  0  0  0  0
   -0.0146   -2.2442    1.4071 C   0  0  0  0  0  0
   -0.5405   -0.8103    1.3494 C   0  0  0  0  0  0
   -0.0972   -0.0320    0.0788 C   0  0  2  0  0  0
    1.3629    0.0560   -0.0340 N   0  0  0  0  0  0
   -0.6885    1.3910    0.0848 C   0  0  0  0  0  0
   -0.2738    2.2251    0.8921 O   0  0  0  0  0  0
   -1.6805    1.6312   -0.7888 N   0  0  0  0  0  0
   -2.3374    2.9257   -0.9412 C   0  0  0  0  0  0
   -1.4316    3.9746   -1.4430 C   0  0  0  0  0  0
   -0.7207    4.7981   -1.8370 N   0  0  0  0  0  0
    2.1356   -0.6425   -0.8860 C   0  0  0  0  0  0
    1.7020   -1.4580   -1.7014 O   0  0  0  0  0  0
    3.5477   -0.3595   -0.7581 C   0  0  0  0  0  0
    2.1328   -4.4997    3.9377 Cl  0  0  0  0  0  0
    4.5490   -0.7270   -1.6381 N   0  0  0  0  0  0
    5.7761   -0.3975   -1.2049 N   0  0  0  0  0  0
    5.6060    0.1782   -0.0363 C   0  0  0  0  0  0
    4.2491    0.2084    0.3020 C   0  0  0  0  0  0
    4.4380   -1.4261   -2.9148 C   0  0  0  0  0  0
    6.7953    0.6817    0.7562 C   0  0  0  0  0  0
    7.0672   -0.1746    2.0009 C   0  0  0  0  0  0
    0.9227   -1.9976    3.3325 H   0  0  0  0  0  0
    1.3468   -5.8755    1.5599 H   0  0  0  0  0  0
    0.0313   -5.1304   -0.3945 H   0  0  0  0  0  0
   -0.8410   -2.8317   -0.4988 H   0  0  0  0  0  0
   -1.6291   -0.8546    1.4162 H   0  0  0  0  0  0
   -0.2125   -0.2729    2.2420 H   0  0  0  0  0  0
   -0.4967   -0.5557   -0.7923 H   0  0  0  0  0  0
    1.8032    0.7172    0.5891 H   0  0  0  0  0  0
   -1.9552    0.9029   -1.4323 H   0  0  0  0  0  0
   -3.1585    2.8243   -1.6507 H   0  0  0  0  0  0
   -2.7701    3.2550    0.0050 H   0  0  0  0  0  0
    3.8323    0.5998    1.2187 H   0  0  0  0  0  0
    3.6777   -0.9426   -3.5290 H   0  0  0  0  0  0
    4.1522   -2.4623   -2.7317 H   0  0  0  0  0  0
    5.3858   -1.4081   -3.4562 H   0  0  0  0  0  0
    7.6979    0.7054    0.1430 H   0  0  0  0  0  0
    6.6279    1.7155    1.0602 H   0  0  0  0  0  0
    7.9226    0.2076    2.5585 H   0  0  0  0  0  0
    7.2828   -1.2087    1.7292 H   0  0  0  0  0  0
    6.2086   -0.1813    2.6734 H   0  0  0  0  0  0
  1  2  2  0  0  0
  1  6  1  0  0  0
  1 27  1  0  0  0
  2 19  1  0  0  0
  2  3  1  0  0  0
  3  4  2  0  0  0
  3 28  1  0  0  0
  4  5  1  0  0  0
  4 29  1  0  0  0
  5  6  2  0  0  0
  5 30  1  0  0  0
  6  7  1  0  0  0
  7  8  1  0  0  0
  7 31  1  0  0  0
  7 32  1  0  0  0
  8  9  1  0  0  0
  8 10  1  0  0  0
  8 33  1  0  0  0
  9 16  1  0  0  0
  9 34  1  0  0  0
 10 11  2  0  0  0
 10 12  1  0  0  0
 12 13  1  0  0  0
 12 35  1  0  0  0
 13 14  1  0  0  0
 13 36  1  0  0  0
 13 37  1  0  0  0
 14 15  3  0  0  0
 16 17  2  0  0  0
 16 18  1  0  0  0
 18 20  1  0  0  0
 18 23  2  0  0  0
 20 21  1  0  0  0
 20 24  1  0  0  0
 21 22  2  0  0  0
 22 23  1  0  0  0
 22 25  1  0  0  0
 23 38  1  0  0  0
 24 39  1  0  0  0
 24 40  1  0  0  0
 24 41  1  0  0  0
 25 26  1  0  0  0
 25 42  1  0  0  0
 25 43  1  0  0  0
 26 44  1  0  0  0
 26 45  1  0  0  0
 26 46  1  0  0  0
M  END
> <chembl_id>
CHEMBL563886

> <chembl_pref_name>
None

> <i_m_ct_stereo_status>
1

> <s_m_source_file>
sdf/inactives_sanitized.sdf

> <i_m_source_file_index>
549

> <i_lp_mmshare_version>
49012

> <i_f3d_flags>
0

> <s_epik_input>
W2NIXTFbY0hdW2NIXWMoW2NIXWMxQ2wpW0NIMl1bQ0BASF0oQyg9TylbTkhdW0NIMl1DI04pW05IXUMoPU8pYzJuKFtDSDNdKW5jKFtjSF0yKVtDSDJdW0NIM10=

> <s_epik_cmdline>
J2VwaWtfcHl0aG9uJywgJy1waHQnLCAnMC41JywgJy1waCcsICc3LjUnLCAnLW50JywgJy1tYScsICcyMDAnLCAnLWltYWUnLCAnPGluZmlsZS5tYWU+JywgJy1vbWFlJywgJzxvdXRmaWxlLm1hZT4n

> <r_lp_tautomer_probability>
1

> <r_epik_Ionization_Penalty>
  0.0000

> <r_epik_Ionization_Penalty_Charging>
  0.0000

> <r_epik_Ionization_Penalty_Neutral>
  0.0000

> <r_epik_State_Penalty>
 -0.0000

> <r_epik_Charging_Adjusted_Penalty>
0

> <i_epik_Tot_Q>
0

> <i_epik_Tot_abs_Q>
0

> <s_lp_Force_Field>
OPLS3e

> <r_lp_Energy>
16.07403

> <b_lp_Chiralities_Consistent>
1

> <s_lp_Variant>
sdf/inactives_sanitized.sdf:549-1

$$$$
sdf/inactives_sanitized.sdf:550
                    3D
 Schrodinger Suite 2020-1.
 49 48  0  0  1  0            999 V2000
   -2.4244    4.0598   -1.5796 C   0  0  0  0  0  0
   -1.8749    3.0514   -0.7106 O   0  0  0  0  0  0
   -3.6476    3.5238   -2.3642 C   0  0  0  0  0  0
   -1.3491    4.6201   -2.5435 C   0  0  0  0  0  0
   -2.8833    5.1800   -0.6238 C   0  0  0  0  0  0
   -1.3408    1.8681   -1.1164 C   0  0  0  0  0  0
   -0.9109    1.1704    0.0033 N   0  0  0  0  0  0
   -1.2579    1.4876   -2.2853 O   0  0  0  0  0  0
   -0.2567   -0.1410   -0.0540 C   0  0  2  0  0  0
   -0.6927   -0.8599    1.2171 C   0  0  0  0  0  0
   -1.2389   -2.0061    1.1929 N   0  0  0  0  0  0
    1.2936   -0.0518   -0.1095 C   0  0  0  0  0  0
    1.8949    0.5750   -1.3861 C   0  0  0  0  0  0
    1.6780   -0.2582   -2.6639 C   0  0  0  0  0  0
    2.2965    0.3913   -3.9088 C   0  0  0  0  0  0
   -1.5378   -2.4598    2.4243 N   0  0  0  0  0  0
   -2.1528   -3.6394    2.6312 C   0  0  0  0  0  0
   -2.4104   -4.4536    1.7361 O   0  0  0  0  0  0
   -2.4657   -3.7813    3.9388 N   0  0  0  0  0  0
   -3.1049   -4.8184    4.5233 C   0  0  0  0  0  0
   -3.5139   -5.8390    3.9573 O   0  0  0  0  0  0
   -3.2057   -4.5051    5.8616 O   0  0  0  0  0  0
   -3.8614   -5.4655    6.6803 C   0  0  0  0  0  0
   -4.1497    4.3219   -2.9125 H   0  0  0  0  0  0
   -4.3819    3.0753   -1.6938 H   0  0  0  0  0  0
   -3.3696    2.7619   -3.0920 H   0  0  0  0  0  0
   -1.0169    3.8773   -3.2686 H   0  0  0  0  0  0
   -0.4656    4.9546   -1.9982 H   0  0  0  0  0  0
   -1.7279    5.4726   -3.1083 H   0  0  0  0  0  0
   -3.3257    6.0162   -1.1671 H   0  0  0  0  0  0
   -2.0501    5.5735   -0.0395 H   0  0  0  0  0  0
   -3.6290    4.8194    0.0862 H   0  0  0  0  0  0
   -1.0401    1.5965    0.9092 H   0  0  0  0  0  0
   -0.6203   -0.6988   -0.9206 H   0  0  0  0  0  0
   -0.4700   -0.3036    2.1275 H   0  0  0  0  0  0
    1.6521    0.5215    0.7480 H   0  0  0  0  0  0
    1.7235   -1.0483    0.0128 H   0  0  0  0  0  0
    1.5035    1.5829   -1.5263 H   0  0  0  0  0  0
    2.9677    0.7008   -1.2323 H   0  0  0  0  0  0
    2.1058   -1.2525   -2.5288 H   0  0  0  0  0  0
    0.6135   -0.4080   -2.8423 H   0  0  0  0  0  0
    2.1332   -0.2269   -4.7919 H   0  0  0  0  0  0
    3.3724    0.5251   -3.7929 H   0  0  0  0  0  0
    1.8550    1.3693   -4.1039 H   0  0  0  0  0  0
   -1.3198   -1.8314    3.1837 H   0  0  0  0  0  0
   -2.1956   -3.0263    4.5511 H   0  0  0  0  0  0
   -3.8838   -5.1123    7.7113 H   0  0  0  0  0  0
   -3.3383   -6.4232    6.6659 H   0  0  0  0  0  0
   -4.8921   -5.6239    6.3586 H   0  0  0  0  0  0
  1  2  1  0  0  0
  1  4  1  0  0  0
  1  5  1  0  0  0
  1  3  1  0  0  0
  2  6  1  0  0  0
  3 24  1  0  0  0
  3 25  1  0  0  0
  3 26  1  0  0  0
  4 27  1  0  0  0
  4 28  1  0  0  0
  4 29  1  0  0  0
  5 30  1  0  0  0
  5 31  1  0  0  0
  5 32  1  0  0  0
  6  7  1  0  0  0
  6  8  2  0  0  0
  7  9  1  0  0  0
  7 33  1  0  0  0
  9 12  1  0  0  0
  9 10  1  0  0  0
  9 34  1  0  0  0
 10 11  2  0  0  0
 10 35  1  0  0  0
 11 16  1  0  0  0
 12 13  1  0  0  0
 12 36  1  0  0  0
 12 37  1  0  0  0
 13 14  1  0  0  0
 13 38  1  0  0  0
 13 39  1  0  0  0
 14 15  1  0  0  0
 14 40  1  0  0  0
 14 41  1  0  0  0
 15 42  1  0  0  0
 15 43  1  0  0  0
 15 44  1  0  0  0
 16 17  1  0  0  0
 16 45  1  0  0  0
 17 18  2  0  0  0
 17 19  1  0  0  0
 19 20  1  0  0  0
 19 46  1  0  0  0
 20 21  2  0  0  0
 20 22  1  0  0  0
 22 23  1  0  0  0
 23 47  1  0  0  0
 23 48  1  0  0  0
 23 49  1  0  0  0
M  END
> <chembl_id>
CHEMBL204197

> <chembl_pref_name>
None

> <i_m_ct_stereo_status>
1

> <s_m_source_file>
sdf/inactives_sanitized.sdf

> <i_m_source_file_index>
550

> <i_lp_mmshare_version>
49012

> <i_f3d_flags>
0

> <s_epik_input>
W0NIM11DKFtDSDNdKShbQ0gzXSlPQyg9TylbTkhdW0NAQEhdKFtDSDJdW0NIMl1bQ0gyXVtDSDNdKS9bQ0hdPU4vW05IXUMoPU8pW05IXUMoPU8pT1tDSDNd

> <s_epik_cmdline>
J2VwaWtfcHl0aG9uJywgJy1waHQnLCAnMC41JywgJy1waCcsICc3LjUnLCAnLW50JywgJy1tYScsICcyMDAnLCAnLWltYWUnLCAnPGluZmlsZS5tYWU+JywgJy1vbWFlJywgJzxvdXRmaWxlLm1hZT4n

> <r_epik_Ionization_Penalty>
  0.0158

> <r_epik_Ionization_Penalty_Charging>
  0.0000

> <r_epik_Ionization_Penalty_Neutral>
  0.0158

> <r_epik_State_Penalty>
  0.0122

> <r_epik_Charging_Adjusted_Penalty>
0.0121864585794844

> <i_epik_Tot_Q>
0

> <i_epik_Tot_abs_Q>
0

> <s_epik_Chemistry_Notes>
This compound has an ester and may undergo hydrolysis at high or low pH. This compound has an imine and may undergo hydrolysis.

> <s_lp_Force_Field>
OPLS3e

> <r_lp_Energy>
20.156989

> <b_lp_Chiralities_Consistent>
1

> <s_lp_Variant>
sdf/inactives_sanitized.sdf:550-1

$$$$
sdf/inactives_sanitized.sdf:551
                    3D
 Schrodinger Suite 2020-1.
 55 54  0  0  1  0            999 V2000
   -0.5322    4.7229   -1.6307 C   0  0  0  0  0  0
   -0.5437    3.5972   -0.7326 O   0  0  0  0  0  0
   -1.5294    4.5185   -2.7980 C   0  0  0  0  0  0
    0.8939    5.0114   -2.1627 C   0  0  0  0  0  0
   -0.9989    5.9084   -0.7610 C   0  0  0  0  0  0
   -0.1837    2.3260   -1.0562 C   0  0  0  0  0  0
   -0.3316    1.5252    0.0668 N   0  0  0  0  0  0
    0.2081    1.9545   -2.1639 O   0  0  0  0  0  0
    0.0069    0.1006    0.0876 C   0  0  2  0  0  0
   -0.7152   -0.4714    1.3028 C   0  0  0  0  0  0
   -1.5126   -1.4556    1.2152 N   0  0  0  0  0  0
    1.5372   -0.1472    0.1695 C   0  0  0  0  0  0
    1.9564   -1.6244    0.0126 C   0  0  0  0  0  0
    3.4815   -1.8220    0.0652 C   0  0  0  0  0  0
    3.8993   -3.2915   -0.0788 C   0  0  0  0  0  0
   -2.0244   -1.8089    2.4083 N   0  0  0  0  0  0
   -2.8936   -2.8256    2.5496 C   0  0  0  0  0  0
   -3.3128   -3.5271    1.6252 O   0  0  0  0  0  0
   -3.2456   -2.9815    3.8399 N   0  0  0  0  0  0
   -4.1519   -3.9839    4.4260 C   0  0  0  0  0  0
   -4.2007   -3.7311    5.9483 C   0  0  0  0  0  0
   -3.6319   -5.4231    4.1874 C   0  0  0  0  0  0
   -5.5875   -3.8432    3.8623 C   0  0  0  0  0  0
   -1.6173    5.4182   -3.4082 H   0  0  0  0  0  0
   -2.5263    4.2751   -2.4279 H   0  0  0  0  0  0
   -1.2267    3.7085   -3.4617 H   0  0  0  0  0  0
    1.2541    4.2261   -2.8269 H   0  0  0  0  0  0
    1.6112    5.0956   -1.3454 H   0  0  0  0  0  0
    0.9265    5.9455   -2.7248 H   0  0  0  0  0  0
   -1.0377    6.8367   -1.3325 H   0  0  0  0  0  0
   -0.3287    6.0716    0.0846 H   0  0  0  0  0  0
   -1.9948    5.7351   -0.3504 H   0  0  0  0  0  0
   -0.6582    1.9515    0.9214 H   0  0  0  0  0  0
   -0.3814   -0.3649   -0.8227 H   0  0  0  0  0  0
   -0.4592    0.0329    2.2346 H   0  0  0  0  0  0
    2.0332    0.4295   -0.6128 H   0  0  0  0  0  0
    1.9310    0.2468    1.1089 H   0  0  0  0  0  0
    1.4918   -2.2257    0.7953 H   0  0  0  0  0  0
    1.5737   -2.0089   -0.9340 H   0  0  0  0  0  0
    3.9548   -1.2373   -0.7248 H   0  0  0  0  0  0
    3.8689   -1.4326    1.0079 H   0  0  0  0  0  0
    4.9840   -3.3932   -0.0353 H   0  0  0  0  0  0
    3.5661   -3.7066   -1.0307 H   0  0  0  0  0  0
    3.4776   -3.9028    0.7197 H   0  0  0  0  0  0
   -1.7117   -1.2612    3.1966 H   0  0  0  0  0  0
   -2.8476   -2.3346    4.5049 H   0  0  0  0  0  0
   -4.8578   -4.4408    6.4533 H   0  0  0  0  0  0
   -4.5697   -2.7305    6.1785 H   0  0  0  0  0  0
   -3.2134   -3.8252    6.4035 H   0  0  0  0  0  0
   -2.6180   -5.5515    4.5693 H   0  0  0  0  0  0
   -3.6151   -5.6831    3.1287 H   0  0  0  0  0  0
   -4.2620   -6.1621    4.6842 H   0  0  0  0  0  0
   -6.2777   -4.5312    4.3526 H   0  0  0  0  0  0
   -5.6314   -4.0591    2.7947 H   0  0  0  0  0  0
   -5.9772   -2.8346    4.0065 H   0  0  0  0  0  0
  1  2  1  0  0  0
  1  4  1  0  0  0
  1  5  1  0  0  0
  1  3  1  0  0  0
  2  6  1  0  0  0
  3 24  1  0  0  0
  3 25  1  0  0  0
  3 26  1  0  0  0
  4 27  1  0  0  0
  4 28  1  0  0  0
  4 29  1  0  0  0
  5 30  1  0  0  0
  5 31  1  0  0  0
  5 32  1  0  0  0
  6  7  1  0  0  0
  6  8  2  0  0  0
  7  9  1  0  0  0
  7 33  1  0  0  0
  9 12  1  0  0  0
  9 10  1  0  0  0
  9 34  1  0  0  0
 10 11  2  0  0  0
 10 35  1  0  0  0
 11 16  1  0  0  0
 12 13  1  0  0  0
 12 36  1  0  0  0
 12 37  1  0  0  0
 13 14  1  0  0  0
 13 38  1  0  0  0
 13 39  1  0  0  0
 14 15  1  0  0  0
 14 40  1  0  0  0
 14 41  1  0  0  0
 15 42  1  0  0  0
 15 43  1  0  0  0
 15 44  1  0  0  0
 16 17  1  0  0  0
 16 45  1  0  0  0
 17 18  2  0  0  0
 17 19  1  0  0  0
 19 20  1  0  0  0
 19 46  1  0  0  0
 20 21  1  0  0  0
 20 22  1  0  0  0
 20 23  1  0  0  0
 21 47  1  0  0  0
 21 48  1  0  0  0
 21 49  1  0  0  0
 22 50  1  0  0  0
 22 51  1  0  0  0
 22 52  1  0  0  0
 23 53  1  0  0  0
 23 54  1  0  0  0
 23 55  1  0  0  0
M  END
> <chembl_id>
CHEMBL369961

> <chembl_pref_name>
None

> <i_m_ct_stereo_status>
1

> <s_m_source_file>
sdf/inactives_sanitized.sdf

> <i_m_source_file_index>
551

> <i_lp_mmshare_version>
49012

> <i_f3d_flags>
0

> <s_epik_input>
W0NIM11DKFtDSDNdKShbQ0gzXSlPQyg9TylbTkhdW0NAQEhdKFtDSDJdW0NIMl1bQ0gyXVtDSDNdKS9bQ0hdPU4vW05IXUMoPU8pW05IXUMoW0NIM10pKFtDSDNdKVtDSDNd

> <s_epik_cmdline>
J2VwaWtfcHl0aG9uJywgJy1waHQnLCAnMC41JywgJy1waCcsICc3LjUnLCAnLW50JywgJy1tYScsICcyMDAnLCAnLWltYWUnLCAnPGluZmlsZS5tYWU+JywgJy1vbWFlJywgJzxvdXRmaWxlLm1hZT4n

> <r_lp_tautomer_probability>
1

> <r_epik_Ionization_Penalty>
  0.0000

> <r_epik_Ionization_Penalty_Charging>
  0.0000

> <r_epik_Ionization_Penalty_Neutral>
  0.0000

> <r_epik_State_Penalty>
 -0.0000

> <r_epik_Charging_Adjusted_Penalty>
0

> <i_epik_Tot_Q>
0

> <i_epik_Tot_abs_Q>
0

> <s_epik_Chemistry_Notes>
This compound has an ester and may undergo hydrolysis at high or low pH. This compound has an imine and may undergo hydrolysis.

> <s_lp_Force_Field>
OPLS3e

> <r_lp_Energy>
16.607447

> <b_lp_Chiralities_Consistent>
1

> <s_lp_Variant>
sdf/inactives_sanitized.sdf:551-1

$$$$
sdf/inactives_sanitized.sdf:552
                    3D
 Schrodinger Suite 2020-1.
 49 48  0  0  1  0            999 V2000
   -3.0887    3.7421   -1.0295 C   0  0  0  0  0  0
   -1.9498    3.0345   -0.5051 O   0  0  0  0  0  0
   -4.4090    3.2274   -0.4039 C   0  0  0  0  0  0
   -3.1397    3.6645   -2.5756 C   0  0  0  0  0  0
   -2.8592    5.2060   -0.6004 C   0  0  0  0  0  0
   -1.7236    1.6995   -0.6335 C   0  0  0  0  0  0
   -0.5440    1.3860    0.0272 N   0  0  0  0  0  0
   -2.4514    0.9068   -1.2341 O   0  0  0  0  0  0
   -0.0217    0.0141    0.1563 C   0  0  2  0  0  0
   -0.4544   -0.6205    1.4894 C   0  0  0  0  0  0
   -1.1308   -0.0324    2.3939 N   0  0  0  0  0  0
    1.5201   -0.0309    0.0009 C   0  0  0  0  0  0
    2.0802    0.6081   -1.2900 C   0  0  0  0  0  0
    1.6063   -0.0690   -2.5900 C   0  0  0  0  0  0
    2.2447    0.5393   -3.8458 C   0  0  0  0  0  0
   -1.3939   -0.8264    3.4475 N   0  0  0  0  0  0
   -2.1408   -0.4141    4.4874 C   0  0  0  0  0  0
   -2.5307    0.7444    4.6613 O   0  0  0  0  0  0
   -2.4718   -1.4415    5.2877 N   0  0  0  0  0  0
   -3.4247   -1.3728    6.3948 C   0  0  0  0  0  0
   -4.8913   -1.3194    5.9380 C   0  0  0  0  0  0
   -5.2552    3.8532   -0.6901 H   0  0  0  0  0  0
   -4.3558    3.2267    0.6856 H   0  0  0  0  0  0
   -4.6438    2.2095   -0.7146 H   0  0  0  0  0  0
   -3.3367    2.6538   -2.9324 H   0  0  0  0  0  0
   -2.1955    3.9837   -3.0187 H   0  0  0  0  0  0
   -3.9247    4.3051   -2.9798 H   0  0  0  0  0  0
   -3.6646    5.8567   -0.9435 H   0  0  0  0  0  0
   -1.9253    5.5995   -1.0046 H   0  0  0  0  0  0
   -2.8020    5.3000    0.4852 H   0  0  0  0  0  0
   -0.0699    2.1224    0.5291 H   0  0  0  0  0  0
   -0.4359   -0.6037   -0.6431 H   0  0  0  0  0  0
   -0.1221   -1.6551    1.5660 H   0  0  0  0  0  0
    1.9835    0.4733    0.8514 H   0  0  0  0  0  0
    1.8652   -1.0654    0.0548 H   0  0  0  0  0  0
    1.8262    1.6687   -1.3169 H   0  0  0  0  0  0
    3.1697    0.5687   -1.2474 H   0  0  0  0  0  0
    1.8343   -1.1352   -2.5528 H   0  0  0  0  0  0
    0.5222    0.0107   -2.6776 H   0  0  0  0  0  0
    1.8887    0.0366   -4.7454 H   0  0  0  0  0  0
    3.3311    0.4464   -3.8231 H   0  0  0  0  0  0
    2.0003    1.5980   -3.9398 H   0  0  0  0  0  0
   -1.0688   -1.7789    3.3679 H   0  0  0  0  0  0
   -2.0376   -2.3388    5.1276 H   0  0  0  0  0  0
   -3.2750   -2.2560    7.0163 H   0  0  0  0  0  0
   -3.1982   -0.5163    7.0328 H   0  0  0  0  0  0
   -5.5596   -1.2856    6.7987 H   0  0  0  0  0  0
   -5.1586   -2.1993    5.3519 H   0  0  0  0  0  0
   -5.0925   -0.4319    5.3369 H   0  0  0  0  0  0
  1  2  1  0  0  0
  1  4  1  0  0  0
  1  5  1  0  0  0
  1  3  1  0  0  0
  2  6  1  0  0  0
  3 22  1  0  0  0
  3 23  1  0  0  0
  3 24  1  0  0  0
  4 25  1  0  0  0
  4 26  1  0  0  0
  4 27  1  0  0  0
  5 28  1  0  0  0
  5 29  1  0  0  0
  5 30  1  0  0  0
  6  7  1  0  0  0
  6  8  2  0  0  0
  7  9  1  0  0  0
  7 31  1  0  0  0
  9 12  1  0  0  0
  9 10  1  0  0  0
  9 32  1  0  0  0
 10 11  2  0  0  0
 10 33  1  0  0  0
 11 16  1  0  0  0
 12 13  1  0  0  0
 12 34  1  0  0  0
 12 35  1  0  0  0
 13 14  1  0  0  0
 13 36  1  0  0  0
 13 37  1  0  0  0
 14 15  1  0  0  0
 14 38  1  0  0  0
 14 39  1  0  0  0
 15 40  1  0  0  0
 15 41  1  0  0  0
 15 42  1  0  0  0
 16 17  1  0  0  0
 16 43  1  0  0  0
 17 18  2  0  0  0
 17 19  1  0  0  0
 19 20  1  0  0  0
 19 44  1  0  0  0
 20 21  1  0  0  0
 20 45  1  0  0  0
 20 46  1  0  0  0
 21 47  1  0  0  0
 21 48  1  0  0  0
 21 49  1  0  0  0
M  END
> <chembl_id>
CHEMBL381837

> <chembl_pref_name>
None

> <i_m_ct_stereo_status>
1

> <s_m_source_file>
sdf/inactives_sanitized.sdf

> <i_m_source_file_index>
552

> <i_lp_mmshare_version>
49012

> <i_f3d_flags>
0

> <s_epik_input>
W0NIM11DKFtDSDNdKShbQ0gzXSlPQyg9TylbTkhdW0NAQEhdKFtDSDJdW0NIMl1bQ0gyXVtDSDNdKS9bQ0hdPU4vW05IXUMoPU8pW05IXVtDSDJdW0NIM10=

> <s_epik_cmdline>
J2VwaWtfcHl0aG9uJywgJy1waHQnLCAnMC41JywgJy1waCcsICc3LjUnLCAnLW50JywgJy1tYScsICcyMDAnLCAnLWltYWUnLCAnPGluZmlsZS5tYWU+JywgJy1vbWFlJywgJzxvdXRmaWxlLm1hZT4n

> <r_lp_tautomer_probability>
1

> <r_epik_Ionization_Penalty>
  0.0001

> <r_epik_Ionization_Penalty_Charging>
  0.0000

> <r_epik_Ionization_Penalty_Neutral>
  0.0001

> <r_epik_State_Penalty>
 -0.0000

> <r_epik_Charging_Adjusted_Penalty>
0

> <i_epik_Tot_Q>
0

> <i_epik_Tot_abs_Q>
0

> <s_epik_Chemistry_Notes>
This compound has an ester and may undergo hydrolysis at high or low pH. This compound has an imine and may undergo hydrolysis.

> <s_lp_Force_Field>
OPLS3e

> <r_lp_Energy>
13.306803

> <b_lp_Chiralities_Consistent>
1

> <s_lp_Variant>
sdf/inactives_sanitized.sdf:552-1

$$$$
sdf/inactives_sanitized.sdf:553
                    3D
 Schrodinger Suite 2020-1.
 54 57  0  0  1  0            999 V2000
    3.1356    0.4838    0.4699 C   0  0  0  0  0  0
    3.4490    1.5435    1.5041 C   0  0  0  0  0  0
    3.8325    0.1104    1.7658 C   0  0  0  0  0  0
   -3.5577   -2.2395    0.7912 S   0  0  0  0  0  0
   -3.3042   -0.8251    1.0909 O   0  0  0  0  0  0
   -4.7716   -2.6291    0.0646 O   0  0  0  0  0  0
   -2.0538   -2.9576   -0.1302 C   0  0  2  0  0  0
   -0.7479   -2.6484    0.6213 C   0  0  0  0  0  0
   -0.1990   -1.3728   -0.0423 C   0  0  2  0  0  0
   -0.5864   -1.5358   -1.5343 C   0  0  1  0  0  0
   -1.9190   -2.3190   -1.5287 C   0  0  0  0  0  0
    1.3208   -1.1802    0.1624 C   0  0  0  0  0  0
   -0.7158   -0.1931   -2.2925 C   0  0  0  0  0  0
   -1.0922    0.8156   -1.6943 O   0  0  0  0  0  0
   -0.3099   -0.2209   -3.5812 N   0  0  0  0  0  0
    1.7410    0.0900    0.2927 N   0  0  0  0  0  0
    2.0781   -2.1466    0.2663 O   0  0  0  0  0  0
    3.9466    0.4407   -0.7598 C   0  0  0  0  0  0
    4.5824    0.4066   -1.7260 N   0  0  0  0  0  0
   -3.5750   -3.1343    2.3442 C   0  0  0  0  0  0
   -4.0413   -4.4507    2.3685 C   0  0  0  0  0  0
   -4.0522   -5.1589    3.5671 C   0  0  0  0  0  0
   -3.5964   -4.5480    4.7338 C   0  0  0  0  0  0
   -3.1300   -3.2349    4.7135 C   0  0  0  0  0  0
   -3.1196   -2.5243    3.5161 C   0  0  0  0  0  0
   -0.2380    0.8183   -4.5294 C   0  0  0  0  0  0
    0.0527    0.4239   -5.8387 C   0  0  0  0  0  0
    0.1531    1.3720   -6.8532 C   0  0  0  0  0  0
   -0.0324    2.7201   -6.5596 C   0  0  0  0  0  0
   -0.3157    3.1274   -5.2587 C   0  0  0  0  0  0
   -0.4178    2.1821   -4.2414 C   0  0  0  0  0  0
    0.0660    3.6411   -7.5448 F   0  0  0  0  0  0
    4.2388    2.2651    1.2933 H   0  0  0  0  0  0
    2.6337    1.9765    2.0847 H   0  0  0  0  0  0
    4.8883   -0.1608    1.7369 H   0  0  0  0  0  0
    3.2814   -0.4447    2.5258 H   0  0  0  0  0  0
   -2.2449   -4.0301   -0.1806 H   0  0  0  0  0  0
   -0.8918   -2.5359    1.6959 H   0  0  0  0  0  0
   -0.0741   -3.4984    0.4979 H   0  0  0  0  0  0
   -0.6982   -0.5355    0.4517 H   0  0  0  0  0  0
    0.1786   -2.1347   -2.0368 H   0  0  0  0  0  0
   -2.7829   -1.6838   -1.7375 H   0  0  0  0  0  0
   -1.8905   -3.0940   -2.2960 H   0  0  0  0  0  0
   -0.0371   -1.1242   -3.9399 H   0  0  0  0  0  0
    1.0821    0.8348    0.1164 H   0  0  0  0  0  0
   -4.3915   -4.9252    1.4633 H   0  0  0  0  0  0
   -4.4118   -6.1771    3.5920 H   0  0  0  0  0  0
   -3.6044   -5.0984    5.6631 H   0  0  0  0  0  0
   -2.7776   -2.7700    5.6224 H   0  0  0  0  0  0
   -2.7554   -1.5074    3.5046 H   0  0  0  0  0  0
    0.2001   -0.6195   -6.0797 H   0  0  0  0  0  0
    0.3752    1.0625   -7.8639 H   0  0  0  0  0  0
   -0.4534    4.1755   -5.0372 H   0  0  0  0  0  0
   -0.6262    2.5420   -3.2472 H   0  0  0  0  0  0
  1  2  1  0  0  0
  1  3  1  0  0  0
  1 16  1  0  0  0
  1 18  1  0  0  0
  2  3  1  0  0  0
  2 33  1  0  0  0
  2 34  1  0  0  0
  3 35  1  0  0  0
  3 36  1  0  0  0
  4  5  2  0  0  0
  4  6  2  0  0  0
  4  7  1  0  0  0
  4 20  1  0  0  0
  7  8  1  0  0  0
  7 11  1  0  0  0
  7 37  1  0  0  0
  8  9  1  0  0  0
  8 38  1  0  0  0
  8 39  1  0  0  0
  9 10  1  0  0  0
  9 12  1  0  0  0
  9 40  1  0  0  0
 10 11  1  0  0  0
 10 13  1  0  0  0
 10 41  1  0  0  0
 11 42  1  0  0  0
 11 43  1  0  0  0
 12 16  1  0  0  0
 12 17  2  0  0  0
 13 14  2  0  0  0
 13 15  1  0  0  0
 15 26  1  0  0  0
 15 44  1  0  0  0
 16 45  1  0  0  0
 18 19  3  0  0  0
 20 21  2  0  0  0
 20 25  1  0  0  0
 21 22  1  0  0  0
 21 46  1  0  0  0
 22 23  2  0  0  0
 22 47  1  0  0  0
 23 24  1  0  0  0
 23 48  1  0  0  0
 24 25  2  0  0  0
 24 49  1  0  0  0
 25 50  1  0  0  0
 26 27  2  0  0  0
 26 31  1  0  0  0
 27 28  1  0  0  0
 27 51  1  0  0  0
 28 29  2  0  0  0
 28 52  1  0  0  0
 29 30  1  0  0  0
 29 32  1  0  0  0
 30 31  2  0  0  0
 30 53  1  0  0  0
 31 54  1  0  0  0
M  END
> <chembl_id>
CHEMBL3093927

> <chembl_pref_name>
None

> <i_m_ct_stereo_status>
1

> <s_m_source_file>
sdf/inactives_sanitized.sdf

> <i_m_source_file_index>
553

> <i_lp_mmshare_version>
49012

> <i_f3d_flags>
0

> <s_epik_input>
W2NIXTFbY0hdYyhGKVtjSF1bY0hdYzFbTkhdQyg9TylbQ0BIXShbQ0gyXTIpW0NASF0oQyg9TylbTkhdQzMoQyNOKVtDSDJdW0NIMl0zKVtDSDJdW0NASF0yUyg9TykoPU8pYzRbY0hdW2NIXVtjSF1bY0hdW2NIXTQ=

> <s_epik_cmdline>
J2VwaWtfcHl0aG9uJywgJy1waHQnLCAnMC41JywgJy1waCcsICc3LjUnLCAnLW50JywgJy1tYScsICcyMDAnLCAnLWltYWUnLCAnPGluZmlsZS5tYWU+JywgJy1vbWFlJywgJzxvdXRmaWxlLm1hZT4n

> <r_lp_tautomer_probability>
1

> <r_epik_Ionization_Penalty>
  0.0000

> <r_epik_Ionization_Penalty_Charging>
  0.0000

> <r_epik_Ionization_Penalty_Neutral>
  0.0000

> <r_epik_State_Penalty>
 -0.0000

> <r_epik_Charging_Adjusted_Penalty>
0

> <i_epik_Tot_Q>
0

> <i_epik_Tot_abs_Q>
0

> <s_lp_Force_Field>
OPLS3e

> <r_lp_Energy>
23.320168

> <b_lp_Chiralities_Consistent>
1

> <s_lp_Variant>
sdf/inactives_sanitized.sdf:553-1

$$$$
sdf/inactives_sanitized.sdf:554
                    3D
 Schrodinger Suite 2020-1.
 57 60  0  0  1  0            999 V2000
    1.9994    0.2919   -4.9434 S   0  0  0  0  0  0
    3.2890    0.9426   -4.6918 O   0  0  0  0  0  0
    1.6441   -0.0809   -6.3171 O   0  0  0  0  0  0
    3.5921    0.4016    0.0827 C   0  0  0  0  0  0
    4.0533    1.6675    0.7730 C   0  0  0  0  0  0
    4.3661    0.3274    1.3863 C   0  0  0  0  0  0
   -3.1392   -1.5553    1.6610 S   0  0  0  0  0  0
   -2.7946   -0.1461    1.4382 O   0  0  0  0  0  0
   -4.4556   -2.0604    1.2550 O   0  0  0  0  0  0
   -1.8054   -2.6555    0.8595 C   0  0  2  0  0  0
   -0.4017   -2.2853    1.3616 C   0  0  0  0  0  0
    0.1218   -1.2515    0.3490 C   0  0  2  0  0  0
   -0.4684   -1.7091   -1.0118 C   0  0  1  0  0  0
   -1.7821   -2.4548   -0.6692 C   0  0  0  0  0  0
    1.6636   -1.1405    0.3293 C   0  0  0  0  0  0
   -0.7223   -0.5154   -1.9766 C   0  0  0  0  0  0
   -1.2545    0.4960   -1.5102 O   0  0  0  0  0  0
   -0.4907   -0.6468   -3.3150 N   0  0  0  0  0  0
    2.1660    0.0871    0.1103 N   0  0  0  0  0  0
    2.3752   -2.1151    0.5780 O   0  0  0  0  0  0
    4.3026   -0.0348   -1.1324 C   0  0  0  0  0  0
    4.8611   -0.3786   -2.0857 N   0  0  0  0  0  0
   -2.9770   -1.8851    3.4151 C   0  0  0  0  0  0
   -2.3617   -0.9524    4.2546 C   0  0  0  0  0  0
   -2.2333   -1.2253    5.6138 C   0  0  0  0  0  0
   -2.7205   -2.4260    6.1262 C   0  0  0  0  0  0
   -3.3349   -3.3580    5.2921 C   0  0  0  0  0  0
   -3.4642   -3.0875    3.9324 C   0  0  0  0  0  0
    0.3657   -1.7035   -3.8884 C   0  0  0  0  0  0
    1.8329   -1.2250   -3.8261 C   0  0  0  0  0  0
    0.6153    1.3519   -4.2110 C   0  0  0  0  0  0
   -0.6878    0.5173   -4.2050 C   0  0  0  0  0  0
    4.8668    2.2410    0.3274 H   0  0  0  0  0  0
    3.3165    2.3037    1.2644 H   0  0  0  0  0  0
    5.3969   -0.0279    1.3668 H   0  0  0  0  0  0
    3.8438    0.0371    2.2988 H   0  0  0  0  0  0
   -2.0856   -3.6705    1.1441 H   0  0  0  0  0  0
   -0.4007   -1.9125    2.3858 H   0  0  0  0  0  0
    0.2042   -3.1934    1.3777 H   0  0  0  0  0  0
   -0.2579   -0.2865    0.6930 H   0  0  0  0  0  0
    0.2196   -2.4274   -1.4554 H   0  0  0  0  0  0
   -2.6839   -1.9337   -0.9976 H   0  0  0  0  0  0
   -1.7850   -3.4268   -1.1648 H   0  0  0  0  0  0
    1.5364    0.8235   -0.1744 H   0  0  0  0  0  0
   -1.9802   -0.0215    3.8614 H   0  0  0  0  0  0
   -1.7575   -0.5094    6.2679 H   0  0  0  0  0  0
   -2.6205   -2.6367    7.1809 H   0  0  0  0  0  0
   -3.7088   -4.2863    5.6983 H   0  0  0  0  0  0
   -3.9382   -3.8109    3.2850 H   0  0  0  0  0  0
    0.1715   -2.6990   -3.4906 H   0  0  0  0  0  0
    0.0568   -1.8315   -4.9268 H   0  0  0  0  0  0
    2.0762   -0.9030   -2.8138 H   0  0  0  0  0  0
    2.5424   -1.9985   -4.1179 H   0  0  0  0  0  0
    0.9114    1.5899   -3.1886 H   0  0  0  0  0  0
    0.5141    2.2815   -4.7699 H   0  0  0  0  0  0
   -0.9045    0.1331   -5.2028 H   0  0  0  0  0  0
   -1.5931    1.0786   -3.9681 H   0  0  0  0  0  0
  1  2  2  0  0  0
  1  3  2  0  0  0
  1 30  1  0  0  0
  1 31  1  0  0  0
  4  5  1  0  0  0
  4  6  1  0  0  0
  4 19  1  0  0  0
  4 21  1  0  0  0
  5  6  1  0  0  0
  5 33  1  0  0  0
  5 34  1  0  0  0
  6 35  1  0  0  0
  6 36  1  0  0  0
  7  8  2  0  0  0
  7  9  2  0  0  0
  7 10  1  0  0  0
  7 23  1  0  0  0
 10 11  1  0  0  0
 10 14  1  0  0  0
 10 37  1  0  0  0
 11 12  1  0  0  0
 11 38  1  0  0  0
 11 39  1  0  0  0
 12 13  1  0  0  0
 12 15  1  0  0  0
 12 40  1  0  0  0
 13 14  1  0  0  0
 13 16  1  0  0  0
 13 41  1  0  0  0
 14 42  1  0  0  0
 14 43  1  0  0  0
 15 19  1  0  0  0
 15 20  2  0  0  0
 16 17  2  0  0  0
 16 18  1  0  0  0
 18 29  1  0  0  0
 18 32  1  0  0  0
 19 44  1  0  0  0
 21 22  3  0  0  0
 23 24  2  0  0  0
 23 28  1  0  0  0
 24 25  1  0  0  0
 24 45  1  0  0  0
 25 26  2  0  0  0
 25 46  1  0  0  0
 26 27  1  0  0  0
 26 47  1  0  0  0
 27 28  2  0  0  0
 27 48  1  0  0  0
 28 49  1  0  0  0
 29 30  1  0  0  0
 29 50  1  0  0  0
 29 51  1  0  0  0
 30 52  1  0  0  0
 30 53  1  0  0  0
 31 32  1  0  0  0
 31 54  1  0  0  0
 31 55  1  0  0  0
 32 56  1  0  0  0
 32 57  1  0  0  0
M  END
> <chembl_id>
CHEMBL3093926

> <chembl_pref_name>
None

> <i_m_ct_stereo_status>
1

> <s_m_source_file>
sdf/inactives_sanitized.sdf

> <i_m_source_file_index>
554

> <i_lp_mmshare_version>
49012

> <i_f3d_flags>
0

> <s_epik_input>
Tz1TMSg9TylbQ0gyXVtDSDJdTihbQ0gyXVtDSDJdMSlDKD1PKVtDQEhdKFtDSDJdMilbQ0BIXShDKD1PKVtOSF1DMyhDI04pW0NIMl1bQ0gyXTMpW0NIMl1bQ0BIXTJTKD1PKSg9TyljNFtjSF1bY0hdW2NIXVtjSF1bY0hdNA==

> <s_epik_cmdline>
J2VwaWtfcHl0aG9uJywgJy1waHQnLCAnMC41JywgJy1waCcsICc3LjUnLCAnLW50JywgJy1tYScsICcyMDAnLCAnLWltYWUnLCAnPGluZmlsZS5tYWU+JywgJy1vbWFlJywgJzxvdXRmaWxlLm1hZT4n

> <r_lp_tautomer_probability>
1

> <r_epik_Ionization_Penalty>
  0.0000

> <r_epik_Ionization_Penalty_Charging>
  0.0000

> <r_epik_Ionization_Penalty_Neutral>
  0.0000

> <r_epik_State_Penalty>
 -0.0000

> <r_epik_Charging_Adjusted_Penalty>
0

> <i_epik_Tot_Q>
0

> <i_epik_Tot_abs_Q>
0

> <s_lp_Force_Field>
OPLS3e

> <r_lp_Energy>
17.182874

> <b_lp_Chiralities_Consistent>
1

> <s_lp_Variant>
sdf/inactives_sanitized.sdf:554-1

$$$$
sdf/inactives_sanitized.sdf:555
                    3D
 Schrodinger Suite 2020-1.
 53 55  0  0  1  0            999 V2000
   -0.9483    1.4310   -0.7269 C   0  0  0  0  0  0
   -0.2280    0.3283   -0.2965 N   0  0  0  0  0  0
   -0.7266   -0.9197    0.0638 C   0  0  0  0  0  0
   -2.0817   -1.0342   -0.2248 N   0  0  0  0  0  0
   -2.9291    0.0519   -0.4576 N   0  0  0  0  0  0
   -2.3897    1.1785   -0.7359 C   0  0  0  0  0  0
   -0.0385   -1.8392    0.5200 O   0  0  0  0  0  0
   -3.2857    2.2688   -1.0586 C   0  0  0  0  0  0
   -4.0339    3.1135   -1.3173 N   0  0  0  0  0  0
   -0.4599    2.5145   -1.0586 O   0  0  0  0  0  0
    1.2409    0.5064   -0.1940 C   0  0  0  0  0  0
   -2.7147   -2.3800   -0.2088 C   0  0  0  0  0  0
    1.9960    0.1577   -1.4923 C   0  0  0  0  0  0
    3.5206    0.3412   -1.3488 C   0  0  0  0  0  0
    4.2279    0.3345   -2.6330 N   0  0  0  0  0  0
    5.6240    0.7526   -2.4506 C   0  0  0  0  0  0
    6.4072    0.7112   -3.7797 C   0  0  0  0  0  0
    6.3093   -0.5840   -4.3612 O   0  0  0  0  0  0
    4.9627   -0.9499   -4.6411 C   0  0  0  0  0  0
    4.1277   -0.9503   -3.3421 C   0  0  0  0  0  0
   -3.6407   -2.6128   -1.4374 C   0  0  0  0  0  0
   -3.8025   -4.0861   -1.8678 C   0  0  0  0  0  0
   -3.3562   -2.6547    1.1816 C   0  0  0  0  0  0
   -4.6478   -4.9833   -0.9482 C   0  0  0  0  0  0
   -4.4508   -3.7337    1.2980 C   0  0  0  0  0  0
   -4.2081   -5.0416    0.5254 C   0  0  0  0  0  0
    1.6521   -0.0829    0.6276 H   0  0  0  0  0  0
    1.4855    1.5309    0.0932 H   0  0  0  0  0  0
   -1.9340   -3.1359   -0.3257 H   0  0  0  0  0  0
    1.7987   -0.8960   -1.6949 H   0  0  0  0  0  0
    1.6148    0.7207   -2.3461 H   0  0  0  0  0  0
    3.7131    1.2756   -0.8185 H   0  0  0  0  0  0
    3.9232   -0.4450   -0.7072 H   0  0  0  0  0  0
    5.6503    1.7606   -2.0342 H   0  0  0  0  0  0
    6.1087    0.1089   -1.7139 H   0  0  0  0  0  0
    6.0431    1.4719   -4.4730 H   0  0  0  0  0  0
    7.4588    0.9338   -3.5988 H   0  0  0  0  0  0
    4.5306   -0.2768   -5.3841 H   0  0  0  0  0  0
    4.9580   -1.9453   -5.0857 H   0  0  0  0  0  0
    4.4649   -1.7557   -2.6871 H   0  0  0  0  0  0
    3.0854   -1.1676   -3.5761 H   0  0  0  0  0  0
   -4.6258   -2.1844   -1.2462 H   0  0  0  0  0  0
   -3.2486   -2.0609   -2.2938 H   0  0  0  0  0  0
   -4.2547   -4.1051   -2.8604 H   0  0  0  0  0  0
   -2.8159   -4.5334   -1.9971 H   0  0  0  0  0  0
   -2.5470   -2.9367    1.8577 H   0  0  0  0  0  0
   -3.7422   -1.7278    1.6098 H   0  0  0  0  0  0
   -5.6909   -4.6674   -0.9996 H   0  0  0  0  0  0
   -4.6335   -5.9957   -1.3542 H   0  0  0  0  0  0
   -4.5726   -3.9713    2.3561 H   0  0  0  0  0  0
   -5.4090   -3.3083    0.9956 H   0  0  0  0  0  0
   -4.7783   -5.8348    1.0112 H   0  0  0  0  0  0
   -3.1627   -5.3437    0.6025 H   0  0  0  0  0  0
  1  2  1  0  0  0
  1 10  2  0  0  0
  1  6  1  0  0  0
  2  3  1  0  0  0
  2 11  1  0  0  0
  3  7  2  0  0  0
  3  4  1  0  0  0
  4  5  1  0  0  0
  4 12  1  0  0  0
  5  6  2  0  0  0
  6  8  1  0  0  0
  8  9  3  0  0  0
 11 13  1  0  0  0
 11 27  1  0  0  0
 11 28  1  0  0  0
 12 21  1  0  0  0
 12 23  1  0  0  0
 12 29  1  0  0  0
 13 14  1  0  0  0
 13 30  1  0  0  0
 13 31  1  0  0  0
 14 15  1  0  0  0
 14 32  1  0  0  0
 14 33  1  0  0  0
 15 16  1  0  0  0
 15 20  1  0  0  0
 16 17  1  0  0  0
 16 34  1  0  0  0
 16 35  1  0  0  0
 17 18  1  0  0  0
 17 36  1  0  0  0
 17 37  1  0  0  0
 18 19  1  0  0  0
 19 20  1  0  0  0
 19 38  1  0  0  0
 19 39  1  0  0  0
 20 40  1  0  0  0
 20 41  1  0  0  0
 21 22  1  0  0  0
 21 42  1  0  0  0
 21 43  1  0  0  0
 22 24  1  0  0  0
 22 44  1  0  0  0
 22 45  1  0  0  0
 23 25  1  0  0  0
 23 46  1  0  0  0
 23 47  1  0  0  0
 24 26  1  0  0  0
 24 48  1  0  0  0
 24 49  1  0  0  0
 25 26  1  0  0  0
 25 50  1  0  0  0
 25 51  1  0  0  0
 26 52  1  0  0  0
 26 53  1  0  0  0
M  END
> <chembl_id>
CHEMBL1084124

> <chembl_pref_name>
None

> <s_m_source_file>
sdf/inactives_sanitized.sdf

> <i_m_source_file_index>
555

> <i_lp_mmshare_version>
49012

> <i_m_ct_stereo_status>
1

> <i_f3d_flags>
0

> <s_epik_input>
W0NIMl0xW0NIMl1bQ0gyXVtDSDJdW0NIMl1bQ0gyXVtDSF0xbihuYzJDI04pYyg9TyluKGMyPU8pW0NIMl1bQ0gyXVtDSDJdTjNbQ0gyXVtDSDJdT1tDSDJdW0NIMl0z

> <s_epik_cmdline>
J2VwaWtfcHl0aG9uJywgJy1waHQnLCAnMC41JywgJy1waCcsICc3LjUnLCAnLW50JywgJy1tYScsICcyMDAnLCAnLWltYWUnLCAnPGluZmlsZS5tYWU+JywgJy1vbWFlJywgJzxvdXRmaWxlLm1hZT4n

> <r_epik_Ionization_Penalty>
  0.3514

> <r_epik_Ionization_Penalty_Charging>
  0.0000

> <r_epik_Ionization_Penalty_Neutral>
  0.3514

> <r_epik_State_Penalty>
  0.3477

> <r_epik_Charging_Adjusted_Penalty>
0.347671939529507

> <i_epik_Tot_Q>
0

> <i_epik_Tot_abs_Q>
0

> <s_lp_Force_Field>
OPLS3e

> <r_lp_Energy>
45.322934

> <b_lp_Chiralities_Consistent>
1

> <s_lp_Variant>
sdf/inactives_sanitized.sdf:555-1

$$$$
sdf/inactives_sanitized.sdf:555
                    3D
 Schrodinger Suite 2020-1.
 54 56  0  0  1  0            999 V2000
   -0.5879    1.4897   -0.5099 C   0  0  0  0  0  0
    0.1637    0.3304   -0.3988 N   0  0  0  0  0  0
   -0.3047   -0.9560   -0.1482 C   0  0  0  0  0  0
   -1.6903   -1.0223   -0.2353 N   0  0  0  0  0  0
   -2.5324    0.0867   -0.1242 N   0  0  0  0  0  0
   -2.0163    1.2443   -0.3029 C   0  0  0  0  0  0
    0.4218   -1.9329    0.0626 O   0  0  0  0  0  0
   -2.9204    2.3744   -0.2710 C   0  0  0  0  0  0
   -3.6596    3.2630   -0.2102 N   0  0  0  0  0  0
   -0.1305    2.6130   -0.7367 O   0  0  0  0  0  0
    1.6329    0.4915   -0.5585 C   0  0  0  0  0  0
   -2.3454   -2.3519   -0.3645 C   0  0  0  0  0  0
    2.3736    1.0093    0.6960 C   0  0  0  0  0  0
    2.2742    0.0768    1.9194 C   0  0  0  0  0  0
    2.9462    0.7040    3.1643 N   0  3  0  0  0  0
    2.5605   -0.0987    4.4282 C   0  0  0  0  0  0
    3.2657    0.5209    5.6496 C   0  0  0  0  0  0
    4.6733    0.5665    5.4401 O   0  0  0  0  0  0
    5.0740    1.3617    4.3288 C   0  0  0  0  0  0
    4.4831    0.8045    3.0192 C   0  0  0  0  0  0
   -3.4268   -2.3516   -1.4833 C   0  0  0  0  0  0
   -3.9203   -3.7484   -1.9095 C   0  0  0  0  0  0
   -2.8259   -2.8417    1.0273 C   0  0  0  0  0  0
   -5.0473   -4.3678   -1.0602 C   0  0  0  0  0  0
   -3.5616   -4.1954    1.0827 C   0  0  0  0  0  0
   -4.9717   -4.1710    0.4662 C   0  0  0  0  0  0
    1.8411    1.1573   -1.3985 H   0  0  0  0  0  0
    2.0849   -0.4573   -0.8531 H   0  0  0  0  0  0
   -1.5985   -3.0748   -0.7021 H   0  0  0  0  0  0
    3.4196    1.1295    0.4175 H   0  0  0  0  0  0
    2.0192    2.0081    0.9538 H   0  0  0  0  0  0
    1.2316   -0.0665    2.2061 H   0  0  0  0  0  0
    2.7422   -0.8959    1.7580 H   0  0  0  0  0  0
    1.4748   -0.0463    4.5215 H   0  0  0  0  0  0
    2.8613   -1.1346    4.2604 H   0  0  0  0  0  0
    2.8824    1.5216    5.8584 H   0  0  0  0  0  0
    3.0673   -0.0792    6.5380 H   0  0  0  0  0  0
    4.7752    2.4006    4.4816 H   0  0  0  0  0  0
    6.1630    1.3576    4.2758 H   0  0  0  0  0  0
    4.8548   -0.1954    2.7884 H   0  0  0  0  0  0
    4.6931    1.4735    2.1856 H   0  0  0  0  0  0
   -4.2831   -1.7409   -1.1925 H   0  0  0  0  0  0
   -3.0033   -1.8721   -2.3677 H   0  0  0  0  0  0
   -4.2722   -3.6960   -2.9409 H   0  0  0  0  0  0
   -3.0723   -4.4342   -1.9404 H   0  0  0  0  0  0
   -1.9485   -2.9336    1.6699 H   0  0  0  0  0  0
   -3.4480   -2.0775    1.4972 H   0  0  0  0  0  0
   -6.0061   -3.9776   -1.4050 H   0  0  0  0  0  0
   -5.0810   -5.4369   -1.2762 H   0  0  0  0  0  0
   -2.9561   -4.9802    0.6267 H   0  0  0  0  0  0
   -3.6583   -4.4769    2.1324 H   0  0  0  0  0  0
   -5.4618   -3.2334    0.7336 H   0  0  0  0  0  0
   -5.5767   -4.9475    0.9367 H   0  0  0  0  0  0
    2.5870    1.6401    3.2903 H   0  0  0  0  0  0
  1  2  1  0  0  0
  1 10  2  0  0  0
  1  6  1  0  0  0
  2  3  1  0  0  0
  2 11  1  0  0  0
  3  7  2  0  0  0
  3  4  1  0  0  0
  4  5  1  0  0  0
  4 12  1  0  0  0
  5  6  2  0  0  0
  6  8  1  0  0  0
  8  9  3  0  0  0
 11 13  1  0  0  0
 11 27  1  0  0  0
 11 28  1  0  0  0
 12 21  1  0  0  0
 12 23  1  0  0  0
 12 29  1  0  0  0
 13 14  1  0  0  0
 13 30  1  0  0  0
 13 31  1  0  0  0
 14 15  1  0  0  0
 14 32  1  0  0  0
 14 33  1  0  0  0
 15 16  1  0  0  0
 15 20  1  0  0  0
 15 54  1  0  0  0
 16 17  1  0  0  0
 16 34  1  0  0  0
 16 35  1  0  0  0
 17 18  1  0  0  0
 17 36  1  0  0  0
 17 37  1  0  0  0
 18 19  1  0  0  0
 19 20  1  0  0  0
 19 38  1  0  0  0
 19 39  1  0  0  0
 20 40  1  0  0  0
 20 41  1  0  0  0
 21 22  1  0  0  0
 21 42  1  0  0  0
 21 43  1  0  0  0
 22 24  1  0  0  0
 22 44  1  0  0  0
 22 45  1  0  0  0
 23 25  1  0  0  0
 23 46  1  0  0  0
 23 47  1  0  0  0
 24 26  1  0  0  0
 24 48  1  0  0  0
 24 49  1  0  0  0
 25 26  1  0  0  0
 25 50  1  0  0  0
 25 51  1  0  0  0
 26 52  1  0  0  0
 26 53  1  0  0  0
M  CHG  1  15   1
M  END
> <chembl_id>
CHEMBL1084124

> <chembl_pref_name>
None

> <s_m_source_file>
sdf/inactives_sanitized.sdf

> <i_m_source_file_index>
555

> <i_lp_mmshare_version>
49012

> <i_m_ct_stereo_status>
1

> <i_f3d_flags>
0

> <s_epik_input>
W0NIMl0xW0NIMl1bQ0gyXVtDSDJdW0NIMl1bQ0gyXVtDSF0xbihuYzJDI04pYyg9TyluKGMyPU8pW0NIMl1bQ0gyXVtDSDJdTjNbQ0gyXVtDSDJdT1tDSDJdW0NIMl0z

> <s_epik_cmdline>
J2VwaWtfcHl0aG9uJywgJy1waHQnLCAnMC41JywgJy1waCcsICc3LjUnLCAnLW50JywgJy1tYScsICcyMDAnLCAnLWltYWUnLCAnPGluZmlsZS5tYWU+JywgJy1vbWFlJywgJzxvdXRmaWxlLm1hZT4n

> <r_epik_Ionization_Penalty>
  0.4765

> <r_epik_Ionization_Penalty_Charging>
  0.4765

> <r_epik_Ionization_Penalty_Neutral>
  0.0000

> <r_epik_State_Penalty>
  0.4812

> <r_epik_Charging_Adjusted_Penalty>
0.957736004340279

> <i_epik_Tot_Q>
1

> <i_epik_Tot_abs_Q>
1

> <s_lp_Force_Field>
OPLS3e

> <r_lp_Energy>
48.188561

> <b_lp_Chiralities_Consistent>
1

> <s_lp_Variant>
sdf/inactives_sanitized.sdf:555-2

$$$$
sdf/inactives_sanitized.sdf:556
                    3D
 Schrodinger Suite 2020-1.
 48 49  0  0  1  0            999 V2000
   -2.1795    1.2983   -0.0063 C   0  0  0  0  0  0
   -2.8853    1.2450    1.1957 C   0  0  0  0  0  0
   -4.2427    0.9354    1.1937 C   0  0  0  0  0  0
   -4.9124    0.6734   -0.0125 C   0  0  0  0  0  0
   -4.1906    0.7287   -1.2136 C   0  0  0  0  0  0
   -2.8334    1.0384   -1.2107 C   0  0  0  0  0  0
   -6.3746    0.3339   -0.0509 C   0  0  0  0  0  0
   -6.9571    0.3316    1.1756 O   0  0  0  0  0  0
   -6.9853    0.0846   -1.0947 O   0  0  0  0  0  0
   -8.3379    0.0348    1.3291 C   0  0  0  0  0  0
   -0.6961    1.6257   -0.0050 C   0  0  0  0  0  0
    0.0448    0.4088   -0.0043 O   0  0  0  0  0  0
    1.4256    0.4550   -0.0060 C   0  0  0  0  0  0
    2.0888   -0.7713   -0.0015 C   0  0  0  0  0  0
    3.4796   -0.8241   -0.0010 C   0  0  0  0  0  0
    4.2347    0.3518   -0.0047 C   0  0  0  0  0  0
    3.5706    1.5851   -0.0109 C   0  0  0  0  0  0
    2.1791    1.6382   -0.0117 C   0  0  0  0  0  0
    5.7105    0.2393   -0.0008 C   0  0  0  0  0  0
    6.6007    1.2589   -0.0026 C   0  0  0  0  0  0
    8.0410    1.1342    0.0018 C   0  0  0  0  0  0
    8.5831   -0.0278    0.0053 N   0  0  0  0  0  0
    8.8073    2.4675    0.0011 C   0  0  0  0  0  0
    9.9383   -0.0638    0.0043 N   0  0  0  0  0  0
   10.6927   -1.2019    0.0019 C   0  0  0  0  0  0
   12.0235   -0.9716    0.0005 N   0  0  0  0  0  0
   10.1420   -2.7784   -0.0002 S   0  0  0  0  0  0
   -2.3848    1.4397    2.1332 H   0  0  0  0  0  0
   -4.7575    0.9013    2.1431 H   0  0  0  0  0  0
   -4.6707    0.5314   -2.1620 H   0  0  0  0  0  0
   -2.2915    1.0725   -2.1447 H   0  0  0  0  0  0
   -8.6086    0.0737    2.3841 H   0  0  0  0  0  0
   -8.5690   -0.9640    0.9559 H   0  0  0  0  0  0
   -8.9550    0.7572    0.7931 H   0  0  0  0  0  0
   -0.4581    2.2265   -0.8853 H   0  0  0  0  0  0
   -0.4528    2.2300    0.8714 H   0  0  0  0  0  0
    1.5216   -1.6906    0.0023 H   0  0  0  0  0  0
    3.9666   -1.7889    0.0028 H   0  0  0  0  0  0
    4.1161    2.5161   -0.0146 H   0  0  0  0  0  0
    1.7041    2.6073   -0.0163 H   0  0  0  0  0  0
    6.0880   -0.7746    0.0043 H   0  0  0  0  0  0
    6.2437    2.2770   -0.0080 H   0  0  0  0  0  0
    8.1531    3.3400    0.0048 H   0  0  0  0  0  0
    9.4418    2.5502   -0.8821 H   0  0  0  0  0  0
    9.4479    2.5481    0.8800 H   0  0  0  0  0  0
   10.3918    0.8382    0.0001 H   0  0  0  0  0  0
   12.3725   -0.0242    0.0090 H   0  0  0  0  0  0
   12.6645   -1.7521   -0.0084 H   0  0  0  0  0  0
  1  2  2  0  0  0
  1  6  1  0  0  0
  1 11  1  0  0  0
  2  3  1  0  0  0
  2 28  1  0  0  0
  3  4  2  0  0  0
  3 29  1  0  0  0
  4  5  1  0  0  0
  4  7  1  0  0  0
  5  6  2  0  0  0
  5 30  1  0  0  0
  6 31  1  0  0  0
  7  8  1  0  0  0
  7  9  2  0  0  0
  8 10  1  0  0  0
 10 32  1  0  0  0
 10 33  1  0  0  0
 10 34  1  0  0  0
 11 12  1  0  0  0
 11 35  1  0  0  0
 11 36  1  0  0  0
 12 13  1  0  0  0
 13 14  2  0  0  0
 13 18  1  0  0  0
 14 15  1  0  0  0
 14 37  1  0  0  0
 15 16  2  0  0  0
 15 38  1  0  0  0
 16 17  1  0  0  0
 16 19  1  0  0  0
 17 18  2  0  0  0
 17 39  1  0  0  0
 18 40  1  0  0  0
 19 20  2  0  0  0
 19 41  1  0  0  0
 20 21  1  0  0  0
 20 42  1  0  0  0
 21 22  2  0  0  0
 21 23  1  0  0  0
 22 24  1  0  0  0
 23 43  1  0  0  0
 23 44  1  0  0  0
 23 45  1  0  0  0
 24 25  1  0  0  0
 24 46  1  0  0  0
 25 26  1  0  0  0
 25 27  2  0  0  0
 26 47  1  0  0  0
 26 48  1  0  0  0
M  END
> <chembl_id>
CHEMBL2316600

> <chembl_pref_name>
None

> <s_m_source_file>
sdf/inactives_sanitized.sdf

> <i_m_source_file_index>
556

> <i_lp_mmshare_version>
49012

> <i_m_ct_stereo_status>
1

> <i_f3d_flags>
0

> <s_epik_input>
W0NIM11PQyg9TyljKFtjSF1bY0hdMSlbY0hdW2NIXWMxW0NIMl1PYzJbY0hdW2NIXWMoW2NIXVtjSF0yKS9bQ0hdPVtDSF0vQyhbQ0gzXSk9Ti9bTkhdQyg9UylbTkgyXQ==

> <s_epik_cmdline>
J2VwaWtfcHl0aG9uJywgJy1waHQnLCAnMC41JywgJy1waCcsICc3LjUnLCAnLW50JywgJy1tYScsICcyMDAnLCAnLWltYWUnLCAnPGluZmlsZS5tYWU+JywgJy1vbWFlJywgJzxvdXRmaWxlLm1hZT4n

> <r_lp_tautomer_probability>
1

> <r_epik_Ionization_Penalty>
  0.0005

> <r_epik_Ionization_Penalty_Charging>
  0.0000

> <r_epik_Ionization_Penalty_Neutral>
  0.0005

> <r_epik_State_Penalty>
 -0.0000

> <r_epik_Charging_Adjusted_Penalty>
0

> <i_epik_Tot_Q>
0

> <i_epik_Tot_abs_Q>
0

> <s_epik_Chemistry_Notes>
This compound has an ester and may undergo hydrolysis at high or low pH. This compound has an imine and may undergo hydrolysis.

> <s_lp_Force_Field>
OPLS3e

> <r_lp_Energy>
42.091015

> <b_lp_Chiralities_Consistent>
1

> <s_lp_Variant>
sdf/inactives_sanitized.sdf:556-1

$$$$
sdf/inactives_sanitized.sdf:557
                    3D
 Schrodinger Suite 2020-1.
 52 54  0  0  1  0            999 V2000
   -6.6133   -2.8908   -1.1560 C   0  0  0  0  0  0
   -5.6011   -3.8246   -0.9445 C   0  0  0  0  0  0
   -4.2689   -3.4252   -1.0142 C   0  0  0  0  0  0
   -3.9542   -2.0925   -1.2941 C   0  0  0  0  0  0
   -4.9739   -1.1602   -1.5038 C   0  0  0  0  0  0
   -6.3061   -1.5606   -1.4354 C   0  0  0  0  0  0
   -2.4990   -1.6543   -1.3649 C   0  0  0  0  0  0
   -1.9616   -1.1421   -0.0136 C   0  0  0  0  0  0
   -0.5142   -0.9447    0.0177 N   0  0  0  0  0  0
    0.1390    0.0785   -0.5655 C   0  0  0  0  0  0
    1.6477    0.0704   -0.4110 C   0  0  0  0  0  0
   -0.4373    0.9789   -1.1785 O   0  0  0  0  0  0
    2.4366    1.2466   -0.3129 C   0  0  0  0  0  0
    3.7937    1.1762   -0.1808 N   0  0  0  0  0  0
    4.3505   -0.0577   -0.1480 C   0  0  0  0  0  0
    3.6944   -1.2376   -0.2348 N   0  0  0  0  0  0
    2.3473   -1.1506   -0.3668 C   0  0  0  0  0  0
    1.8458    2.5278   -0.3312 N   0  0  0  0  0  0
    5.7945   -0.1185   -0.0017 C   0  0  0  0  0  0
    6.9450   -0.1666    0.1152 N   0  0  0  0  0  0
    2.5889    3.7540   -0.0444 C   0  0  0  0  0  0
    2.5818    4.1515    1.4485 C   0  0  0  0  0  0
    1.1621    4.4800    1.9680 C   0  0  0  0  0  0
    1.1764    4.7867    3.4809 C   0  0  0  0  0  0
    2.1742    5.9130    3.8479 C   0  0  0  0  0  0
    3.5681    5.7196    3.2011 C   0  0  0  0  0  0
    3.4799    5.3825    1.6971 C   0  0  0  0  0  0
    1.6741    7.0465    3.3503 F   0  0  0  0  0  0
    2.2731    6.0550    5.1696 F   0  0  0  0  0  0
   -7.6465   -3.2010   -1.1024 H   0  0  0  0  0  0
   -5.8484   -4.8533   -0.7270 H   0  0  0  0  0  0
   -3.4848   -4.1500   -0.8495 H   0  0  0  0  0  0
   -4.7359   -0.1283   -1.7178 H   0  0  0  0  0  0
   -7.0975   -0.8437   -1.5978 H   0  0  0  0  0  0
   -1.8926   -2.4899   -1.7191 H   0  0  0  0  0  0
   -2.3888   -0.8852   -2.1314 H   0  0  0  0  0  0
   -2.5149   -0.2625    0.3213 H   0  0  0  0  0  0
   -2.1941   -1.8839    0.7519 H   0  0  0  0  0  0
    0.0200   -1.6333    0.5270 H   0  0  0  0  0  0
    1.8347   -2.0988   -0.4463 H   0  0  0  0  0  0
    0.8370    2.5759   -0.3005 H   0  0  0  0  0  0
    3.6159    3.6793   -0.4041 H   0  0  0  0  0  0
    2.1537    4.5514   -0.6479 H   0  0  0  0  0  0
    2.9782    3.3187    2.0335 H   0  0  0  0  0  0
    0.7383    5.3133    1.4047 H   0  0  0  0  0  0
    0.4867    3.6464    1.7717 H   0  0  0  0  0  0
    0.1705    5.0606    3.8017 H   0  0  0  0  0  0
    1.4391    3.8794    4.0272 H   0  0  0  0  0  0
    4.1684    6.6210    3.3324 H   0  0  0  0  0  0
    4.0977    4.9175    3.7173 H   0  0  0  0  0  0
    4.4807    5.1932    1.3061 H   0  0  0  0  0  0
    3.1182    6.2382    1.1241 H   0  0  0  0  0  0
  1  6  2  0  0  0
  1  2  1  0  0  0
  1 30  1  0  0  0
  2  3  2  0  0  0
  2 31  1  0  0  0
  3  4  1  0  0  0
  3 32  1  0  0  0
  4  7  1  0  0  0
  4  5  2  0  0  0
  5  6  1  0  0  0
  5 33  1  0  0  0
  6 34  1  0  0  0
  7  8  1  0  0  0
  7 35  1  0  0  0
  7 36  1  0  0  0
  8  9  1  0  0  0
  8 37  1  0  0  0
  8 38  1  0  0  0
  9 10  1  0  0  0
  9 39  1  0  0  0
 10 11  1  0  0  0
 10 12  2  0  0  0
 11 17  1  0  0  0
 11 13  2  0  0  0
 13 18  1  0  0  0
 13 14  1  0  0  0
 14 15  2  0  0  0
 15 16  1  0  0  0
 15 19  1  0  0  0
 16 17  2  0  0  0
 17 40  1  0  0  0
 18 21  1  0  0  0
 18 41  1  0  0  0
 19 20  3  0  0  0
 21 22  1  0  0  0
 21 42  1  0  0  0
 21 43  1  0  0  0
 22 23  1  0  0  0
 22 27  1  0  0  0
 22 44  1  0  0  0
 23 24  1  0  0  0
 23 45  1  0  0  0
 23 46  1  0  0  0
 24 25  1  0  0  0
 24 47  1  0  0  0
 24 48  1  0  0  0
 25 26  1  0  0  0
 25 28  1  0  0  0
 25 29  1  0  0  0
 26 27  1  0  0  0
 26 49  1  0  0  0
 26 50  1  0  0  0
 27 51  1  0  0  0
 27 52  1  0  0  0
M  END
> <chembl_id>
CHEMBL456755

> <chembl_pref_name>
None

> <s_m_source_file>
sdf/inactives_sanitized.sdf

> <i_m_source_file_index>
557

> <i_lp_mmshare_version>
49012

> <i_m_ct_stereo_status>
1

> <i_f3d_flags>
0

> <s_epik_input>
W2NIXTFbY0hdW2NIXVtjSF1bY0hdYzFbQ0gyXVtDSDJdW05IXUMoPU8pYzJjKG5jKEMjTiluW2NIXTIpW05IXVtDSDJdW0NIXShbQ0gyXVtDSDJdMylbQ0gyXVtDSDJdQzMoRilG

> <s_epik_cmdline>
J2VwaWtfcHl0aG9uJywgJy1waHQnLCAnMC41JywgJy1waCcsICc3LjUnLCAnLW50JywgJy1tYScsICcyMDAnLCAnLWltYWUnLCAnPGluZmlsZS5tYWU+JywgJy1vbWFlJywgJzxvdXRmaWxlLm1hZT4n

> <r_lp_tautomer_probability>
1

> <r_epik_Ionization_Penalty>
  0.0000

> <r_epik_Ionization_Penalty_Charging>
  0.0000

> <r_epik_Ionization_Penalty_Neutral>
  0.0000

> <r_epik_State_Penalty>
 -0.0000

> <r_epik_Charging_Adjusted_Penalty>
0

> <i_epik_Tot_Q>
0

> <i_epik_Tot_abs_Q>
0

> <s_lp_Force_Field>
OPLS3e

> <r_lp_Energy>
36.003038

> <b_lp_Chiralities_Consistent>
1

> <s_lp_Variant>
sdf/inactives_sanitized.sdf:557-1

$$$$
sdf/inactives_sanitized.sdf:558
                    3D
 Schrodinger Suite 2020-1.
 51 52  0  0  1  0            999 V2000
   -4.8410    0.7507   -0.0190 C   0  0  0  0  0  0
   -4.1529    0.8975    1.1964 C   0  0  0  0  0  0
   -2.7815    1.1374    1.2073 C   0  0  0  0  0  0
   -2.0796    1.2349    0.0057 C   0  0  0  0  0  0
   -2.7514    1.0855   -1.2077 C   0  0  0  0  0  0
   -4.1226    0.8446   -1.2197 C   0  0  0  0  0  0
   -6.3197    0.4925   -0.0674 C   0  0  0  0  0  0
   -6.9071    0.5089    1.1568 O   0  0  0  0  0  0
   -6.9406    0.3015   -1.1175 O   0  0  0  0  0  0
   -8.3040    0.2918    1.3013 C   0  0  0  0  0  0
   -0.5825    1.4935    0.0184 C   0  0  0  0  0  0
    0.1036    0.2452   -0.0103 O   0  0  0  0  0  0
    1.4875    0.2234    0.0086 C   0  0  0  0  0  0
    2.2834    1.3755    0.0581 C   0  0  0  0  0  0
    3.6713    1.2795    0.0765 C   0  0  0  0  0  0
    4.3300    0.0376    0.0475 C   0  0  0  0  0  0
    3.5129   -1.1070   -0.0036 C   0  0  0  0  0  0
    2.1086   -1.0306   -0.0239 C   0  0  0  0  0  0
    1.2786   -2.1376   -0.0756 O   0  0  0  0  0  0
    1.8437   -3.4437   -0.1102 C   0  0  0  0  0  0
    5.8256   -0.0364    0.0704 C   0  0  0  0  0  0
    6.4615   -1.4532    0.0493 C   0  0  0  0  0  0
    6.5111   -2.0348   -1.3757 C   0  0  0  0  0  0
    6.5064    1.0545    0.0555 N   0  0  0  0  0  0
    7.8578    0.9632    0.0119 N   0  0  0  0  0  0
    8.7143    2.0262   -0.0086 C   0  0  0  0  0  0
   10.0175    1.6738   -0.0498 N   0  0  0  0  0  0
    8.3128    3.6471    0.0128 S   0  0  0  0  0  0
   -4.6640    0.8264    2.1457 H   0  0  0  0  0  0
   -2.2674    1.2451    2.1515 H   0  0  0  0  0  0
   -2.2138    1.1536   -2.1425 H   0  0  0  0  0  0
   -4.6169    0.7334   -2.1749 H   0  0  0  0  0  0
   -8.5822    0.3642    2.3528 H   0  0  0  0  0  0
   -8.5848   -0.6995    0.9427 H   0  0  0  0  0  0
   -8.8769    1.0366    0.7467 H   0  0  0  0  0  0
   -0.3115    2.1055   -0.8443 H   0  0  0  0  0  0
   -0.3177    2.0637    0.9113 H   0  0  0  0  0  0
    1.8449    2.3613    0.0839 H   0  0  0  0  0  0
    4.2297    2.2040    0.1157 H   0  0  0  0  0  0
    3.9647   -2.0836   -0.0351 H   0  0  0  0  0  0
    1.0419   -4.1810   -0.1455 H   0  0  0  0  0  0
    2.4382   -3.6466    0.7819 H   0  0  0  0  0  0
    2.4634   -3.5885   -0.9965 H   0  0  0  0  0  0
    7.4842   -1.4427    0.4263 H   0  0  0  0  0  0
    5.9469   -2.1279    0.7329 H   0  0  0  0  0  0
    6.9597   -3.0284   -1.3704 H   0  0  0  0  0  0
    7.1099   -1.4093   -2.0393 H   0  0  0  0  0  0
    5.5192   -2.1287   -1.8189 H   0  0  0  0  0  0
    8.2245    0.0228   -0.0088 H   0  0  0  0  0  0
   10.2775    0.6982   -0.0573 H   0  0  0  0  0  0
   10.7274    2.3919   -0.0683 H   0  0  0  0  0  0
  1  2  2  0  0  0
  1  6  1  0  0  0
  1  7  1  0  0  0
  2  3  1  0  0  0
  2 29  1  0  0  0
  3  4  2  0  0  0
  3 30  1  0  0  0
  4  5  1  0  0  0
  4 11  1  0  0  0
  5  6  2  0  0  0
  5 31  1  0  0  0
  6 32  1  0  0  0
  7  8  1  0  0  0
  7  9  2  0  0  0
  8 10  1  0  0  0
 10 33  1  0  0  0
 10 34  1  0  0  0
 10 35  1  0  0  0
 11 12  1  0  0  0
 11 36  1  0  0  0
 11 37  1  0  0  0
 12 13  1  0  0  0
 13 14  2  0  0  0
 13 18  1  0  0  0
 14 15  1  0  0  0
 14 38  1  0  0  0
 15 16  2  0  0  0
 15 39  1  0  0  0
 16 17  1  0  0  0
 16 21  1  0  0  0
 17 18  2  0  0  0
 17 40  1  0  0  0
 18 19  1  0  0  0
 19 20  1  0  0  0
 20 41  1  0  0  0
 20 42  1  0  0  0
 20 43  1  0  0  0
 21 22  1  0  0  0
 21 24  2  0  0  0
 22 23  1  0  0  0
 22 44  1  0  0  0
 22 45  1  0  0  0
 23 46  1  0  0  0
 23 47  1  0  0  0
 23 48  1  0  0  0
 24 25  1  0  0  0
 25 26  1  0  0  0
 25 49  1  0  0  0
 26 27  1  0  0  0
 26 28  2  0  0  0
 27 50  1  0  0  0
 27 51  1  0  0  0
M  END
> <chembl_id>
CHEMBL2316305

> <chembl_pref_name>
None

> <s_m_source_file>
sdf/inactives_sanitized.sdf

> <i_m_source_file_index>
558

> <i_lp_mmshare_version>
49012

> <i_m_ct_stereo_status>
1

> <i_f3d_flags>
0

> <s_epik_input>
W0NIM11PQyg9TyljMVtjSF1bY0hdYyhbY0hdW2NIXTEpW0NIMl1PYzJbY0hdW2NIXWMoW2NIXWMyT1tDSDNdKS9DKFtDSDJdW0NIM10pPU4vW05IXUMoPVMpW05IMl0=

> <s_epik_cmdline>
J2VwaWtfcHl0aG9uJywgJy1waHQnLCAnMC41JywgJy1waCcsICc3LjUnLCAnLW50JywgJy1tYScsICcyMDAnLCAnLWltYWUnLCAnPGluZmlsZS5tYWU+JywgJy1vbWFlJywgJzxvdXRmaWxlLm1hZT4n

> <r_lp_tautomer_probability>
1

> <r_epik_Ionization_Penalty>
  0.0000

> <r_epik_Ionization_Penalty_Charging>
  0.0000

> <r_epik_Ionization_Penalty_Neutral>
  0.0000

> <r_epik_State_Penalty>
 -0.0000

> <r_epik_Charging_Adjusted_Penalty>
0

> <i_epik_Tot_Q>
0

> <i_epik_Tot_abs_Q>
0

> <s_epik_Chemistry_Notes>
This compound has an ester and may undergo hydrolysis at high or low pH. This compound has an imine and may undergo hydrolysis.

> <s_lp_Force_Field>
OPLS3e

> <r_lp_Energy>
53.762311

> <b_lp_Chiralities_Consistent>
1

> <s_lp_Variant>
sdf/inactives_sanitized.sdf:558-1

$$$$
sdf/inactives_sanitized.sdf:559
                    3D
 Schrodinger Suite 2020-1.
 53 55  0  0  1  0            999 V2000
   -1.9457    6.3557    0.4767 N   0  0  0  0  0  0
   -2.6465    5.2878   -0.0042 C   0  0  0  0  0  0
   -3.9690    5.4353   -0.4549 C   0  0  0  0  0  0
   -4.5766    6.6912   -0.3972 C   0  0  0  0  0  0
   -3.8632    7.7804    0.1027 C   0  0  0  0  0  0
   -2.5503    7.5700    0.5273 C   0  0  0  0  0  0
   -1.9231    3.9742   -0.0400 C   0  0  0  0  0  0
   -2.6247    2.7598   -0.0451 C   0  0  0  0  0  0
   -1.9671    1.5216   -0.0765 C   0  0  0  0  0  0
   -0.5629    1.4826   -0.0992 C   0  0  0  0  0  0
    0.1472    2.6929   -0.0976 C   0  0  0  0  0  0
   -0.5228    3.9122   -0.0663 C   0  0  0  0  0  0
    0.0494    0.2412   -0.1257 O   0  0  0  0  0  0
    1.4657    0.1509   -0.0055 C   0  0  0  0  0  0
    1.8604   -1.3318    0.0964 C   0  0  0  0  0  0
    3.3764   -1.6195    0.1055 C   0  0  0  0  0  0
    4.0456   -0.9907    1.2533 N   0  0  1  0  0  0
   -1.7417    8.6572    1.0542 C   0  0  0  0  0  0
   -1.0986    9.5234    1.4733 N   0  0  0  0  0  0
   -2.7761    0.2195   -0.0798 C   0  0  0  0  0  0
   -2.4598   -0.5100    0.9909 F   0  0  0  0  0  0
   -2.4904   -0.4854   -1.1752 F   0  0  0  0  0  0
   -4.0943    0.4280   -0.0594 F   0  0  0  0  0  0
    6.0352    0.0781    0.1485 C   0  0  0  0  0  0
    6.9644   -0.8713    0.9374 N   0  3  0  0  0  0
    6.2339   -2.2031    1.2178 C   0  0  0  0  0  0
    4.9379   -1.8870    2.0002 C   0  0  0  0  0  0
    4.7284    0.2785    0.9557 C   0  0  0  0  0  0
    8.2721   -1.1210    0.1616 C   0  0  0  0  0  0
   -4.5258    4.6025   -0.8571 H   0  0  0  0  0  0
   -5.5926    6.8193   -0.7408 H   0  0  0  0  0  0
   -4.3234    8.7574    0.1516 H   0  0  0  0  0  0
   -3.7032    2.7746   -0.0092 H   0  0  0  0  0  0
    1.2260    2.7114   -0.1218 H   0  0  0  0  0  0
    0.0669    4.8174   -0.0695 H   0  0  0  0  0  0
    1.9432    0.6073   -0.8744 H   0  0  0  0  0  0
    1.7946    0.6805    0.8903 H   0  0  0  0  0  0
    1.3912   -1.7954    0.9656 H   0  0  0  0  0  0
    1.4343   -1.8517   -0.7627 H   0  0  0  0  0  0
    3.5164   -2.7016    0.1270 H   0  0  0  0  0  0
    3.8211   -1.2833   -0.8316 H   0  0  0  0  0  0
    6.5822    1.0155    0.0391 H   0  0  0  0  0  0
    5.8738   -0.3583   -0.8387 H   0  0  0  0  0  0
    6.0497   -2.6919    0.2590 H   0  0  0  0  0  0
    6.9205   -2.8116    1.8081 H   0  0  0  0  0  0
    5.1793   -1.4312    2.9619 H   0  0  0  0  0  0
    4.4102   -2.8127    2.2353 H   0  0  0  0  0  0
    4.0622    0.9379    0.3999 H   0  0  0  0  0  0
    4.9413    0.7950    1.8931 H   0  0  0  0  0  0
    8.0202   -1.5981   -0.7871 H   0  0  0  0  0  0
    8.8955   -1.7652    0.7830 H   0  0  0  0  0  0
    8.7468   -0.1507    0.0106 H   0  0  0  0  0  0
    7.1797   -0.4374    1.8245 H   0  0  0  0  0  0
  1  2  2  0  0  0
  1  6  1  0  0  0
  2  7  1  0  0  0
  2  3  1  0  0  0
  3  4  2  0  0  0
  3 30  1  0  0  0
  4  5  1  0  0  0
  4 31  1  0  0  0
  5  6  2  0  0  0
  5 32  1  0  0  0
  6 18  1  0  0  0
  7 12  1  0  0  0
  7  8  2  0  0  0
  8  9  1  0  0  0
  8 33  1  0  0  0
  9 10  2  0  0  0
  9 20  1  0  0  0
 10 13  1  0  0  0
 10 11  1  0  0  0
 11 12  2  0  0  0
 11 34  1  0  0  0
 12 35  1  0  0  0
 13 14  1  0  0  0
 14 15  1  0  0  0
 14 36  1  0  0  0
 14 37  1  0  0  0
 15 16  1  0  0  0
 15 38  1  0  0  0
 15 39  1  0  0  0
 16 17  1  0  0  0
 16 40  1  0  0  0
 16 41  1  0  0  0
 17 27  1  0  0  0
 17 28  1  0  0  0
 18 19  3  0  0  0
 20 21  1  0  0  0
 20 23  1  0  0  0
 20 22  1  0  0  0
 24 25  1  0  0  0
 24 28  1  0  0  0
 24 42  1  0  0  0
 24 43  1  0  0  0
 25 29  1  0  0  0
 25 26  1  0  0  0
 25 53  1  0  0  0
 26 27  1  0  0  0
 26 44  1  0  0  0
 26 45  1  0  0  0
 27 46  1  0  0  0
 27 47  1  0  0  0
 28 48  1  0  0  0
 28 49  1  0  0  0
 29 50  1  0  0  0
 29 51  1  0  0  0
 29 52  1  0  0  0
M  CHG  1  25   1
M  END
> <chembl_id>
CHEMBL1209147

> <chembl_pref_name>
None

> <s_m_source_file>
sdf/inactives_sanitized.sdf

> <i_m_source_file_index>
559

> <i_lp_mmshare_version>
49012

> <i_m_ct_stereo_status>
1

> <i_f3d_flags>
0

> <s_epik_input>
W2NIXTFbY0hdW2NIXWMoQyNOKW5jMS1jMltjSF1jKEMoRikoRilGKWMoW2NIXVtjSF0yKU9bQ0gyXVtDSDJdW0NIMl1OM1tDSDJdW0NIMl1OKFtDSDNdKVtDSDJdW0NIMl0z

> <s_epik_cmdline>
J2VwaWtfcHl0aG9uJywgJy1waHQnLCAnMC41JywgJy1waCcsICc3LjUnLCAnLW50JywgJy1tYScsICcyMDAnLCAnLWltYWUnLCAnPGluZmlsZS5tYWU+JywgJy1vbWFlJywgJzxvdXRmaWxlLm1hZT4n

> <r_lp_tautomer_probability>
1

> <r_epik_Ionization_Penalty>
  0.0821

> <r_epik_Ionization_Penalty_Charging>
  0.0819

> <r_epik_Ionization_Penalty_Neutral>
  0.0002

> <r_epik_State_Penalty>
  0.1567

> <r_epik_Charging_Adjusted_Penalty>
0.238597781158603

> <i_epik_Tot_Q>
1

> <i_epik_Tot_abs_Q>
1

> <s_lp_Force_Field>
OPLS3e

> <r_lp_Energy>
58.597801

> <b_lp_Chiralities_Consistent>
1

> <s_lp_Variant>
sdf/inactives_sanitized.sdf:559-1

$$$$
sdf/inactives_sanitized.sdf:560
                    3D
 Schrodinger Suite 2020-1.
 43 44  0  0  1  0            999 V2000
    5.1184   -0.1264   -3.3337 C   0  0  0  0  0  0
    3.6092   -0.1148   -3.2141 C   0  0  0  0  0  0
    4.3625   -1.4290   -3.3165 C   0  0  0  0  0  0
   -0.4134    2.1162   -3.8780 C   0  0  0  0  0  0
    0.3759    3.2589   -3.9833 C   0  0  0  0  0  0
    0.9094    3.8579   -2.8447 C   0  0  0  0  0  0
    0.6466    3.3136   -1.5906 C   0  0  0  0  0  0
   -0.1455    2.1671   -1.4742 C   0  0  0  0  0  0
   -0.6706    1.5669   -2.6253 C   0  0  0  0  0  0
   -0.4298    1.5909   -0.0823 C   0  0  2  0  0  0
    0.1165    0.2402    0.0855 N   0  0  1  0  0  0
    1.5903    0.0782    0.0570 C   0  0  2  0  0  0
    2.0038   -0.4076   -1.3538 C   0  0  0  0  0  0
    3.0308    0.2449   -1.9231 N   0  0  0  0  0  0
    1.4250   -1.3600   -1.8809 O   0  0  0  0  0  0
    2.8198    0.2838   -4.3930 C   0  0  0  0  0  0
    2.2032    0.5944   -5.3212 N   0  0  0  0  0  0
    2.0355   -0.9262    1.1501 C   0  0  0  0  0  0
   -1.9353    1.6012    0.2933 C   0  0  0  0  0  0
   -2.1169    1.2177    1.5584 F   0  0  0  0  0  0
   -2.4468    2.8281    0.1849 F   0  0  0  0  0  0
   -2.6721    0.7932   -0.4712 F   0  0  0  0  0  0
    3.8868   -1.0067    1.3353 S   0  0  1  0  0  0
    4.1708    0.6501    2.1206 C   0  0  0  0  0  0
    4.1800   -2.0591    2.4058 O   0  0  0  0  0  0
    0.6304    3.7889   -5.2009 F   0  0  0  0  0  0
    5.7230    0.1331   -2.4640 H   0  0  0  0  0  0
    5.5733    0.2014   -4.2691 H   0  0  0  0  0  0
    4.2924   -2.0054   -4.2397 H   0  0  0  0  0  0
    4.4439   -2.0661   -2.4348 H   0  0  0  0  0  0
   -0.8175    1.6527   -4.7660 H   0  0  0  0  0  0
    1.5221    4.7427   -2.9346 H   0  0  0  0  0  0
    1.0604    3.7859   -0.7116 H   0  0  0  0  0  0
   -1.2721    0.6727   -2.5540 H   0  0  0  0  0  0
    0.0706    2.2208    0.6557 H   0  0  0  0  0  0
   -0.3729   -0.3255    0.7649 H   0  0  0  0  0  0
    2.0654    1.0374    0.2680 H   0  0  0  0  0  0
    3.3999    1.0695   -1.4727 H   0  0  0  0  0  0
    1.6099   -0.6618    2.1191 H   0  0  0  0  0  0
    1.6732   -1.9303    0.9217 H   0  0  0  0  0  0
    3.9684    1.4588    1.4198 H   0  0  0  0  0  0
    5.2084    0.7316    2.4437 H   0  0  0  0  0  0
    3.5320    0.7728    2.9952 H   0  0  0  0  0  0
  1  3  1  0  0  0
  1  2  1  0  0  0
  1 27  1  0  0  0
  1 28  1  0  0  0
  2 14  1  0  0  0
  2 16  1  0  0  0
  2  3  1  0  0  0
  3 29  1  0  0  0
  3 30  1  0  0  0
  4  5  2  0  0  0
  4  9  1  0  0  0
  4 31  1  0  0  0
  5  6  1  0  0  0
  5 26  1  0  0  0
  6  7  2  0  0  0
  6 32  1  0  0  0
  7  8  1  0  0  0
  7 33  1  0  0  0
  8  9  2  0  0  0
  8 10  1  0  0  0
  9 34  1  0  0  0
 10 11  1  0  0  0
 10 19  1  0  0  0
 10 35  1  0  0  0
 11 12  1  0  0  0
 11 36  1  0  0  0
 12 13  1  0  0  0
 12 18  1  0  0  0
 12 37  1  0  0  0
 13 14  1  0  0  0
 13 15  2  0  0  0
 14 38  1  0  0  0
 16 17  3  0  0  0
 18 23  1  0  0  0
 18 39  1  0  0  0
 18 40  1  0  0  0
 19 20  1  0  0  0
 19 21  1  0  0  0
 19 22  1  0  0  0
 23 24  1  0  0  0
 23 25  2  0  0  0
 24 41  1  0  0  0
 24 42  1  0  0  0
 24 43  1  0  0  0
M  END
> <chembl_id>
CHEMBL250119

> <chembl_pref_name>
None

> <i_m_ct_stereo_status>
1

> <s_m_source_file>
sdf/inactives_sanitized.sdf

> <i_m_source_file_index>
560

> <i_lp_mmshare_version>
49012

> <i_f3d_flags>
0

> <s_epik_input>
W0NIMl0xW0NIMl1DMShDI04pW05IXUMoPU8pW0NASF0oW0NIMl1bUytdKFtPLV0pW0NIM10pW05IXVtDQEhdKEMoRikoRilGKWMoW2NIXVtjSF0yKVtjSF1bY0hdYzJG

> <s_epik_cmdline>
J2VwaWtfcHl0aG9uJywgJy1waHQnLCAnMC41JywgJy1waCcsICc3LjUnLCAnLW50JywgJy1tYScsICcyMDAnLCAnLWltYWUnLCAnPGluZmlsZS5tYWU+JywgJy1vbWFlJywgJzxvdXRmaWxlLm1hZT4n

> <r_lp_tautomer_probability>
1

> <r_epik_Ionization_Penalty>
  0.0004

> <r_epik_Ionization_Penalty_Charging>
  0.0000

> <r_epik_Ionization_Penalty_Neutral>
  0.0004

> <r_epik_State_Penalty>
 -0.0000

> <r_epik_Charging_Adjusted_Penalty>
0

> <i_epik_Tot_Q>
0

> <i_epik_Tot_abs_Q>
2

> <s_lp_Force_Field>
OPLS3e

> <r_lp_Energy>
29.148874

> <b_lp_Chiralities_Consistent>
1

> <s_lp_Variant>
sdf/inactives_sanitized.sdf:560-1

$$$$
sdf/inactives_sanitized.sdf:561
                    3D
 Schrodinger Suite 2020-1.
 66 67  0  0  1  0            999 V2000
   -0.4628   -1.4483   -0.1678 C   0  0  0  0  0  0
    0.3160   -0.0854   -0.3897 C   0  0  0  0  0  0
    2.6110    1.1120   -2.1389 C   0  0  0  0  0  0
   -1.8003   -1.2839   -0.1757 N   0  0  0  0  0  0
    2.5253    0.9887   -0.7533 N   0  0  0  0  0  0
    1.8260   -0.1456   -0.1092 C   0  0  1  0  0  0
    3.3937    2.1742   -2.4307 O   0  0  0  0  0  0
    3.6355    2.5857   -3.7755 C   0  0  2  0  0  0
   -2.7945   -2.3526   -0.0185 C   0  0  1  0  0  0
   -0.2872    0.9302   -0.7540 O   0  0  0  0  0  0
    0.1341   -2.5132    0.0001 O   0  0  0  0  0  0
    2.0832    0.3759   -2.9765 O   0  0  0  0  0  0
   -2.6928   -3.1501    1.2893 C   0  0  0  0  0  0
    4.9477    3.4022   -3.8394 C   0  0  0  0  0  0
    2.4664    3.4335   -4.3424 C   0  0  0  0  0  0
    2.7598    3.8527   -5.8040 C   0  0  2  0  0  0
    5.2554    3.8195   -5.2991 C   0  0  1  0  0  0
    4.0725    4.6718   -5.8171 C   0  0  0  0  0  0
    2.0618   -0.1388    1.4264 C   0  0  0  0  0  0
   -4.2128   -1.7869   -0.2010 C   0  0  0  0  0  0
   -2.8874   -4.5352    1.2656 C   0  0  0  0  0  0
   -2.3804   -2.5153    2.4986 C   0  0  0  0  0  0
    6.5894    4.5789   -5.4037 C   0  0  0  0  0  0
    1.5916    4.6482   -6.4119 C   0  0  0  0  0  0
    3.5444   -0.2662    1.8341 C   0  0  0  0  0  0
    3.7420   -0.2882    3.3601 C   0  0  0  0  0  0
    5.2155   -0.4111    3.7703 C   0  0  0  0  0  0
   -2.7751   -5.2783    2.4376 C   0  0  0  0  0  0
   -2.2682   -3.2584    3.6705 C   0  0  0  0  0  0
   -2.4657   -4.6367    3.6346 C   0  0  0  0  0  0
   -2.1649   -0.3600   -0.3581 H   0  0  0  0  0  0
    3.2381    1.4518   -0.2089 H   0  0  0  0  0  0
    2.2714   -1.0611   -0.5063 H   0  0  0  0  0  0
    3.7668    1.6984   -4.3988 H   0  0  0  0  0  0
   -2.6227   -3.0420   -0.8489 H   0  0  0  0  0  0
    4.8834    4.3012   -3.2234 H   0  0  0  0  0  0
    5.7841    2.8177   -3.4530 H   0  0  0  0  0  0
    1.5294    2.8754   -4.3139 H   0  0  0  0  0  0
    2.3105    4.3337   -3.7446 H   0  0  0  0  0  0
    2.9099    2.9483   -6.3970 H   0  0  0  0  0  0
    5.3229    2.9159   -5.9083 H   0  0  0  0  0  0
    4.2816    5.0206   -6.8297 H   0  0  0  0  0  0
    3.9696    5.5980   -5.2482 H   0  0  0  0  0  0
    1.6625    0.7835    1.8544 H   0  0  0  0  0  0
    1.5131   -0.9588    1.8938 H   0  0  0  0  0  0
   -4.9597   -2.5815   -0.1931 H   0  0  0  0  0  0
   -4.3104   -1.2608   -1.1517 H   0  0  0  0  0  0
   -4.4676   -1.0832    0.5928 H   0  0  0  0  0  0
   -3.1226   -5.0388    0.3391 H   0  0  0  0  0  0
   -2.2236   -1.4470    2.5325 H   0  0  0  0  0  0
    6.5772    5.4950   -4.8117 H   0  0  0  0  0  0
    6.8058    4.8544   -6.4364 H   0  0  0  0  0  0
    7.4198    3.9669   -5.0499 H   0  0  0  0  0  0
    1.3996    5.5661   -5.8548 H   0  0  0  0  0  0
    0.6724    4.0611   -6.4115 H   0  0  0  0  0  0
    1.7998    4.9253   -7.4457 H   0  0  0  0  0  0
    3.9603   -1.1786    1.4037 H   0  0  0  0  0  0
    4.1165    0.5629    1.4155 H   0  0  0  0  0  0
    3.3259    0.6212    3.7963 H   0  0  0  0  0  0
    3.1808   -1.1182    3.7919 H   0  0  0  0  0  0
    5.3178   -0.4168    4.8559 H   0  0  0  0  0  0
    5.8034    0.4235    3.3871 H   0  0  0  0  0  0
    5.6563   -1.3338    3.3916 H   0  0  0  0  0  0
   -2.9244   -6.3478    2.4181 H   0  0  0  0  0  0
   -2.0270   -2.7686    4.6024 H   0  0  0  0  0  0
   -2.3770   -5.2143    4.5429 H   0  0  0  0  0  0
  1  2  1  0  0  0
  1  4  1  0  0  0
  1 11  2  0  0  0
  2  6  1  0  0  0
  2 10  2  0  0  0
  3  5  1  0  0  0
  3  7  1  0  0  0
  3 12  2  0  0  0
  4  9  1  0  0  0
  4 31  1  0  0  0
  5  6  1  0  0  0
  5 32  1  0  0  0
  6 19  1  0  0  0
  6 33  1  0  0  0
  7  8  1  0  0  0
  8 14  1  0  0  0
  8 15  1  0  0  0
  8 34  1  0  0  0
  9 13  1  0  0  0
  9 20  1  0  0  0
  9 35  1  0  0  0
 13 21  2  0  0  0
 13 22  1  0  0  0
 14 17  1  0  0  0
 14 36  1  0  0  0
 14 37  1  0  0  0
 15 16  1  0  0  0
 15 38  1  0  0  0
 15 39  1  0  0  0
 16 18  1  0  0  0
 16 24  1  0  0  0
 16 40  1  0  0  0
 17 23  1  0  0  0
 17 18  1  0  0  0
 17 41  1  0  0  0
 18 42  1  0  0  0
 18 43  1  0  0  0
 19 25  1  0  0  0
 19 44  1  0  0  0
 19 45  1  0  0  0
 20 46  1  0  0  0
 20 47  1  0  0  0
 20 48  1  0  0  0
 21 28  1  0  0  0
 21 49  1  0  0  0
 22 29  2  0  0  0
 22 50  1  0  0  0
 23 51  1  0  0  0
 23 52  1  0  0  0
 23 53  1  0  0  0
 24 54  1  0  0  0
 24 55  1  0  0  0
 24 56  1  0  0  0
 25 26  1  0  0  0
 25 57  1  0  0  0
 25 58  1  0  0  0
 26 27  1  0  0  0
 26 59  1  0  0  0
 26 60  1  0  0  0
 27 61  1  0  0  0
 27 62  1  0  0  0
 27 63  1  0  0  0
 28 30  2  0  0  0
 28 64  1  0  0  0
 29 30  1  0  0  0
 29 65  1  0  0  0
 30 66  1  0  0  0
M  END
> <chembl_id>
CHEMBL371749

> <chembl_pref_name>
None

> <i_m_ct_stereo_status>
1

> <s_m_source_file>
sdf/inactives_sanitized.sdf

> <i_m_source_file_index>
561

> <i_lp_mmshare_version>
49012

> <i_f3d_flags>
0

> <s_epik_input>
W2NIXTFbY0hdW2NIXVtjSF1bY0hdYzFbQ0BASF0oW0NIM10pW05IXUMoPU8pQyg9TylbQ0BIXShbQ0gyXVtDSDJdW0NIMl1bQ0gzXSlbTkhdQyg9TylPW0NAQEhdMltDSDJdW0NASF0oW0NIM10pW0NIMl1bQ0BASF0oW0NIMl0yKVtDSDNd

> <s_epik_cmdline>
J2VwaWtfcHl0aG9uJywgJy1waHQnLCAnMC41JywgJy1waCcsICc3LjUnLCAnLW50JywgJy1tYScsICcyMDAnLCAnLWltYWUnLCAnPGluZmlsZS5tYWU+JywgJy1vbWFlJywgJzxvdXRmaWxlLm1hZT4n

> <r_lp_tautomer_probability>
1

> <r_epik_Ionization_Penalty>
  0.0000

> <r_epik_Ionization_Penalty_Charging>
  0.0000

> <r_epik_Ionization_Penalty_Neutral>
  0.0000

> <r_epik_State_Penalty>
 -0.0000

> <r_epik_Charging_Adjusted_Penalty>
0

> <i_epik_Tot_Q>
0

> <i_epik_Tot_abs_Q>
0

> <s_epik_Chemistry_Notes>
This compound has an ester and may undergo hydrolysis at high or low pH.

> <s_lp_Force_Field>
OPLS3e

> <r_lp_Energy>
31.323555

> <b_lp_Chiralities_Consistent>
1

> <s_lp_Variant>
sdf/inactives_sanitized.sdf:561-1

$$$$
sdf/inactives_sanitized.sdf:562
                    3D
 Schrodinger Suite 2020-1.
 53 55  0  0  1  0            999 V2000
    0.0848   -0.1731    0.3519 S   0  0  0  0  0  0
   -0.4438   -1.0457   -0.7035 O   0  0  0  0  0  0
   -0.0736   -0.5696    1.7551 O   0  0  0  0  0  0
    1.8049    0.0396    0.0367 N   0  0  1  0  0  0
    2.7744   -0.9861    0.5219 C   0  0  0  0  0  0
    3.7565   -1.1242   -0.6691 C   0  0  2  0  0  0
    3.7197    0.2656   -1.3521 C   0  0  1  0  0  0
    2.2388    0.6652   -1.2410 C   0  0  0  0  0  0
    3.3013   -2.2763   -1.6095 C   0  0  0  0  0  0
    4.6227    1.3287   -0.6528 C   0  0  0  0  0  0
    5.1309    1.0657    0.4409 O   0  0  0  0  0  0
    4.7330    2.5661   -1.2099 N   0  0  0  0  0  0
    4.4169    2.8396   -2.6219 C   0  0  0  0  0  0
    5.7677    2.8757   -3.3722 C   0  0  0  0  0  0
    6.6279    3.8550   -2.7864 O   0  0  0  0  0  0
    6.8991    3.6254   -1.4018 C   0  0  0  0  0  0
    5.5824    3.5982   -0.5894 C   0  0  0  0  0  0
    3.6696   -3.5162   -1.2417 N   0  0  0  0  0  0
    2.6968   -2.0548   -2.6603 O   0  0  0  0  0  0
    3.4047   -4.7253   -2.0171 C   0  0  0  0  0  0
    4.1337   -4.7559   -3.2974 C   0  0  0  0  0  0
    4.7067   -4.7803   -4.3025 N   0  0  0  0  0  0
   -0.6435    1.4707    0.1433 C   0  0  0  0  0  0
   -1.3563    1.6960   -1.0428 C   0  0  0  0  0  0
   -1.9711    2.9194   -1.2895 C   0  0  0  0  0  0
   -1.8821    3.9395   -0.3506 C   0  0  0  0  0  0
   -1.1725    3.7358    0.8295 C   0  0  0  0  0  0
   -0.5357    2.5129    1.0987 C   0  0  0  0  0  0
    0.2386    2.3789    2.4210 C   0  0  0  0  0  0
    0.4800    3.5655    2.9833 F   0  0  0  0  0  0
   -0.4812    1.6668    3.2874 F   0  0  0  0  0  0
    1.4229    1.7954    2.2494 F   0  0  0  0  0  0
    3.3694   -0.6101    1.3546 H   0  0  0  0  0  0
    2.2977   -1.9478    0.7216 H   0  0  0  0  0  0
    4.7502   -1.4112   -0.3171 H   0  0  0  0  0  0
    4.0845    0.2011   -2.3788 H   0  0  0  0  0  0
    1.9789    1.7234   -1.2904 H   0  0  0  0  0  0
    1.7026    0.2025   -2.0698 H   0  0  0  0  0  0
    3.6232    2.2425   -3.0703 H   0  0  0  0  0  0
    3.9967    3.8462   -2.6092 H   0  0  0  0  0  0
    6.2471    1.8948   -3.3598 H   0  0  0  0  0  0
    5.6044    3.1133   -4.4233 H   0  0  0  0  0  0
    7.4520    2.6922   -1.2780 H   0  0  0  0  0  0
    7.5514    4.4133   -1.0253 H   0  0  0  0  0  0
    5.0401    4.5312   -0.7493 H   0  0  0  0  0  0
    5.6885    3.5180    0.4933 H   0  0  0  0  0  0
    4.2291   -3.6296   -0.4088 H   0  0  0  0  0  0
    3.7117   -5.5940   -1.4345 H   0  0  0  0  0  0
    2.3369   -4.8328   -2.2155 H   0  0  0  0  0  0
   -1.4453    0.9223   -1.7906 H   0  0  0  0  0  0
   -2.5195    3.0737   -2.2071 H   0  0  0  0  0  0
   -2.3622    4.8891   -0.5364 H   0  0  0  0  0  0
   -1.1252    4.5503    1.5374 H   0  0  0  0  0  0
  1  2  2  0  0  0
  1  3  2  0  0  0
  1  4  1  0  0  0
  1 23  1  0  0  0
  4  5  1  0  0  0
  4  8  1  0  0  0
  5  6  1  0  0  0
  5 33  1  0  0  0
  5 34  1  0  0  0
  6  7  1  0  0  0
  6  9  1  0  0  0
  6 35  1  0  0  0
  7  8  1  0  0  0
  7 10  1  0  0  0
  7 36  1  0  0  0
  8 37  1  0  0  0
  8 38  1  0  0  0
  9 18  1  0  0  0
  9 19  2  0  0  0
 10 11  2  0  0  0
 10 12  1  0  0  0
 12 13  1  0  0  0
 12 17  1  0  0  0
 13 14  1  0  0  0
 13 39  1  0  0  0
 13 40  1  0  0  0
 14 15  1  0  0  0
 14 41  1  0  0  0
 14 42  1  0  0  0
 15 16  1  0  0  0
 16 17  1  0  0  0
 16 43  1  0  0  0
 16 44  1  0  0  0
 17 45  1  0  0  0
 17 46  1  0  0  0
 18 20  1  0  0  0
 18 47  1  0  0  0
 20 21  1  0  0  0
 20 48  1  0  0  0
 20 49  1  0  0  0
 21 22  3  0  0  0
 23 24  2  0  0  0
 23 28  1  0  0  0
 24 25  1  0  0  0
 24 50  1  0  0  0
 25 26  2  0  0  0
 25 51  1  0  0  0
 26 27  1  0  0  0
 26 52  1  0  0  0
 27 28  2  0  0  0
 27 53  1  0  0  0
 28 29  1  0  0  0
 29 30  1  0  0  0
 29 31  1  0  0  0
 29 32  1  0  0  0
M  END
> <chembl_id>
CHEMBL3093945

> <chembl_pref_name>
None

> <i_m_ct_stereo_status>
1

> <s_m_source_file>
sdf/inactives_sanitized.sdf

> <i_m_source_file_index>
562

> <i_lp_mmshare_version>
49012

> <i_f3d_flags>
0

> <s_epik_input>
RkMoRikoRiljMVtjSF1bY0hdW2NIXVtjSF1jMVMoPU8pKD1PKU4yW0NIMl1bQ0BASF0oQyg9TylbTkhdW0NIMl1DI04pW0NAQEhdKFtDSDJdMilDKD1PKU4zW0NIMl1bQ0gyXU9bQ0gyXVtDSDJdMw==

> <s_epik_cmdline>
J2VwaWtfcHl0aG9uJywgJy1waHQnLCAnMC41JywgJy1waCcsICc3LjUnLCAnLW50JywgJy1tYScsICcyMDAnLCAnLWltYWUnLCAnPGluZmlsZS5tYWU+JywgJy1vbWFlJywgJzxvdXRmaWxlLm1hZT4n

> <r_lp_tautomer_probability>
1

> <r_epik_Ionization_Penalty>
  0.0000

> <r_epik_Ionization_Penalty_Charging>
  0.0000

> <r_epik_Ionization_Penalty_Neutral>
  0.0000

> <r_epik_State_Penalty>
 -0.0000

> <r_epik_Charging_Adjusted_Penalty>
0

> <i_epik_Tot_Q>
0

> <i_epik_Tot_abs_Q>
0

> <s_lp_Force_Field>
OPLS3e

> <r_lp_Energy>
9.850924

> <b_lp_Chiralities_Consistent>
1

> <s_lp_Variant>
sdf/inactives_sanitized.sdf:562-1

$$$$
sdf/inactives_sanitized.sdf:563
                    3D
 Schrodinger Suite 2020-1.
 59 59  0  0  1  0            999 V2000
   -3.2959   -3.7354   -7.0305 C   0  0  0  0  0  0
   -2.4562   -2.7712   -7.5841 C   0  0  0  0  0  0
   -2.0029   -1.7164   -6.7958 C   0  0  0  0  0  0
   -2.3867   -1.6297   -5.4550 C   0  0  0  0  0  0
   -3.2363   -2.5979   -4.9079 C   0  0  0  0  0  0
   -3.6888   -3.6530   -5.6963 C   0  0  0  0  0  0
   -1.8892   -0.4616   -4.6143 C   0  0  0  0  0  0
   -1.5535   -0.8891   -3.2972 O   0  0  0  0  0  0
   -1.0411   -0.0239   -2.4014 C   0  0  0  0  0  0
   -0.8091   -0.6987   -1.2075 N   0  0  0  0  0  0
   -0.8162    1.1694   -2.6221 O   0  0  0  0  0  0
   -0.1750   -0.0240   -0.0603 C   0  0  2  0  0  0
    1.3417    0.2097   -0.2651 C   0  0  0  0  0  0
   -0.4230   -0.8600    1.2251 C   0  0  0  0  0  0
    1.8545    1.3066    0.3175 N   0  0  0  0  0  0
    2.0124   -0.5984   -0.9102 O   0  0  0  0  0  0
   -1.9077   -1.0317    1.6305 C   0  0  0  0  0  0
   -2.6085    0.3174    1.9002 C   0  0  0  0  0  0
   -2.0468   -2.0077    2.8188 C   0  0  0  0  0  0
    3.2504    1.7246    0.1973 C   0  0  2  0  0  0
    3.6226    2.5526    1.3567 C   0  0  0  0  0  0
    3.5447    2.4269   -1.1426 C   0  0  0  0  0  0
    3.9145    3.2033    2.2682 N   0  0  0  0  0  0
    4.9305    2.7649   -1.1980 O   0  0  0  0  0  0
    5.4304    3.4723   -2.3408 C   0  0  0  0  0  0
    4.7877    4.8744   -2.4403 C   0  0  0  0  0  0
    5.2046    2.6660   -3.6406 C   0  0  0  0  0  0
    6.9412    3.6106   -2.0729 C   0  0  0  0  0  0
   -3.6472   -4.5535   -7.6420 H   0  0  0  0  0  0
   -2.1585   -2.8407   -8.6201 H   0  0  0  0  0  0
   -1.3535   -0.9694   -7.2292 H   0  0  0  0  0  0
   -3.5477   -2.5353   -3.8753 H   0  0  0  0  0  0
   -4.3424   -4.4031   -5.2759 H   0  0  0  0  0  0
   -1.0091   -0.0207   -5.0867 H   0  0  0  0  0  0
   -2.6655    0.3045   -4.5767 H   0  0  0  0  0  0
   -0.9507   -1.6974   -1.1658 H   0  0  0  0  0  0
   -0.6510    0.9502    0.0759 H   0  0  0  0  0  0
    0.0268   -1.8472    1.0978 H   0  0  0  0  0  0
    0.1050   -0.4071    2.0670 H   0  0  0  0  0  0
    1.2374    1.9296    0.8187 H   0  0  0  0  0  0
   -2.4255   -1.5008    0.7927 H   0  0  0  0  0  0
   -3.2551    0.2886    2.7772 H   0  0  0  0  0  0
   -3.2367    0.5985    1.0543 H   0  0  0  0  0  0
   -1.8936    1.1252    2.0579 H   0  0  0  0  0  0
   -2.4062   -1.5199    3.7250 H   0  0  0  0  0  0
   -1.0979   -2.4802    3.0745 H   0  0  0  0  0  0
   -2.7481   -2.8083    2.5816 H   0  0  0  0  0  0
    3.8939    0.8466    0.2864 H   0  0  0  0  0  0
    3.2840    1.7629   -1.9673 H   0  0  0  0  0  0
    2.9222    3.3182   -1.2259 H   0  0  0  0  0  0
    5.2807    5.4843   -3.1984 H   0  0  0  0  0  0
    4.8586    5.4088   -1.4922 H   0  0  0  0  0  0
    3.7319    4.8239   -2.7069 H   0  0  0  0  0  0
    4.1488    2.6005   -3.9036 H   0  0  0  0  0  0
    5.5795    1.6465   -3.5423 H   0  0  0  0  0  0
    5.7179    3.1246   -4.4868 H   0  0  0  0  0  0
    7.4467    4.1426   -2.8798 H   0  0  0  0  0  0
    7.4171    2.6342   -1.9725 H   0  0  0  0  0  0
    7.1319    4.1560   -1.1477 H   0  0  0  0  0  0
  1  6  2  0  0  0
  1  2  1  0  0  0
  1 29  1  0  0  0
  2  3  2  0  0  0
  2 30  1  0  0  0
  3  4  1  0  0  0
  3 31  1  0  0  0
  4  7  1  0  0  0
  4  5  2  0  0  0
  5  6  1  0  0  0
  5 32  1  0  0  0
  6 33  1  0  0  0
  7  8  1  0  0  0
  7 34  1  0  0  0
  7 35  1  0  0  0
  8  9  1  0  0  0
  9 10  1  0  0  0
  9 11  2  0  0  0
 10 12  1  0  0  0
 10 36  1  0  0  0
 12 14  1  0  0  0
 12 13  1  0  0  0
 12 37  1  0  0  0
 13 15  1  0  0  0
 13 16  2  0  0  0
 14 17  1  0  0  0
 14 38  1  0  0  0
 14 39  1  0  0  0
 15 20  1  0  0  0
 15 40  1  0  0  0
 17 18  1  0  0  0
 17 19  1  0  0  0
 17 41  1  0  0  0
 18 42  1  0  0  0
 18 43  1  0  0  0
 18 44  1  0  0  0
 19 45  1  0  0  0
 19 46  1  0  0  0
 19 47  1  0  0  0
 20 21  1  0  0  0
 20 22  1  0  0  0
 20 48  1  0  0  0
 21 23  3  0  0  0
 22 24  1  0  0  0
 22 49  1  0  0  0
 22 50  1  0  0  0
 24 25  1  0  0  0
 25 26  1  0  0  0
 25 27  1  0  0  0
 25 28  1  0  0  0
 26 51  1  0  0  0
 26 52  1  0  0  0
 26 53  1  0  0  0
 27 54  1  0  0  0
 27 55  1  0  0  0
 27 56  1  0  0  0
 28 57  1  0  0  0
 28 58  1  0  0  0
 28 59  1  0  0  0
M  END
> <chembl_id>
CHEMBL205948

> <chembl_pref_name>
None

> <i_m_ct_stereo_status>
1

> <s_m_source_file>
sdf/inactives_sanitized.sdf

> <i_m_source_file_index>
563

> <i_lp_mmshare_version>
49012

> <i_f3d_flags>
0

> <s_epik_input>
W2NIXTFbY0hdW2NIXVtjSF1bY0hdYzFbQ0gyXU9DKD1PKVtOSF1bQ0BASF0oW0NIMl1bQ0hdKFtDSDNdKVtDSDNdKUMoPU8pW05IXVtDQEhdKEMjTilbQ0gyXU9DKFtDSDNdKShbQ0gzXSlbQ0gzXQ==

> <s_epik_cmdline>
J2VwaWtfcHl0aG9uJywgJy1waHQnLCAnMC41JywgJy1waCcsICc3LjUnLCAnLW50JywgJy1tYScsICcyMDAnLCAnLWltYWUnLCAnPGluZmlsZS5tYWU+JywgJy1vbWFlJywgJzxvdXRmaWxlLm1hZT4n

> <r_lp_tautomer_probability>
1

> <r_epik_Ionization_Penalty>
  0.0000

> <r_epik_Ionization_Penalty_Charging>
  0.0000

> <r_epik_Ionization_Penalty_Neutral>
  0.0000

> <r_epik_State_Penalty>
 -0.0000

> <r_epik_Charging_Adjusted_Penalty>
0

> <i_epik_Tot_Q>
0

> <i_epik_Tot_abs_Q>
0

> <s_epik_Chemistry_Notes>
This compound has an ester and may undergo hydrolysis at high or low pH.

> <s_lp_Force_Field>
OPLS3e

> <r_lp_Energy>
19.981347

> <b_lp_Chiralities_Consistent>
1

> <s_lp_Variant>
sdf/inactives_sanitized.sdf:563-1

$$$$
sdf/inactives_sanitized.sdf:564
                    3D
 Schrodinger Suite 2020-1.
 48 50  0  0  1  0            999 V2000
   -0.7029    2.0246   -1.1190 C   0  0  0  0  0  0
   -1.2496    3.3152   -1.1772 C   0  0  0  0  0  0
   -1.5714    3.9410    0.0388 C   0  0  0  0  0  0
   -1.3479    3.3054    1.2599 C   0  0  0  0  0  0
   -0.7868    2.0310    1.2914 C   0  0  0  0  0  0
   -0.4528    1.3856    0.0997 C   0  0  0  0  0  0
    0.1971    0.0037    0.1237 C   0  0  0  0  0  0
    1.7392    0.0568   -0.0632 C   0  0  2  0  0  0
    2.1282    0.7279   -1.3093 N   0  0  0  0  0  0
    2.3352   -1.3636   -0.0412 C   0  0  0  0  0  0
    2.1175   -2.1352   -0.9774 O   0  0  0  0  0  0
    3.0431   -1.6977    1.0504 N   0  0  0  0  0  0
    3.7079   -2.9848    1.2280 C   0  0  0  0  0  0
    4.8138   -3.1947    0.2767 C   0  0  0  0  0  0
    5.6823   -3.3594   -0.4698 N   0  0  0  0  0  0
    2.9392    1.7980   -1.4167 C   0  0  0  0  0  0
    3.5075    2.3123   -0.4507 O   0  0  0  0  0  0
    3.1283    2.3550   -2.8112 C   0  0  0  0  0  0
   -1.4556    3.9998   -2.4939 C   0  0  0  0  0  0
    4.2429    3.1583   -3.0925 C   0  0  0  0  0  0
    4.4235    3.6976   -4.3636 C   0  0  0  0  0  0
    3.4879    3.4420   -5.3618 C   0  0  0  0  0  0
    2.3730    2.6510   -5.1003 C   0  0  0  0  0  0
    2.1932    2.1087   -3.8309 C   0  0  0  0  0  0
   -1.6202    3.2970   -3.6968 C   0  0  0  0  0  0
   -1.7964    4.0181   -4.8758 C   0  0  0  0  0  0
   -1.8060    5.4082   -4.7944 C   0  0  0  0  0  0
   -1.6547    6.0646   -3.6159 N   0  0  0  0  0  0
   -1.4844    5.3655   -2.4806 N   0  0  0  0  0  0
   -0.4327    1.5114   -2.0291 H   0  0  0  0  0  0
   -1.9998    4.9326    0.0476 H   0  0  0  0  0  0
   -1.6017    3.8061    2.1825 H   0  0  0  0  0  0
   -0.6031    1.5532    2.2428 H   0  0  0  0  0  0
   -0.0646   -0.4972    1.0581 H   0  0  0  0  0  0
   -0.2742   -0.6037   -0.6520 H   0  0  0  0  0  0
    2.1355    0.6133    0.7896 H   0  0  0  0  0  0
    1.7327    0.3347   -2.1506 H   0  0  0  0  0  0
    3.1948   -1.0040    1.7686 H   0  0  0  0  0  0
    4.1182   -3.0350    2.2365 H   0  0  0  0  0  0
    2.9967   -3.8070    1.1309 H   0  0  0  0  0  0
    4.9789    3.3722   -2.3301 H   0  0  0  0  0  0
    5.2852    4.3141   -4.5729 H   0  0  0  0  0  0
    3.6270    3.8626   -6.3468 H   0  0  0  0  0  0
    1.6488    2.4605   -5.8786 H   0  0  0  0  0  0
    1.3147    1.5055   -3.6539 H   0  0  0  0  0  0
   -1.6187    2.2180   -3.7301 H   0  0  0  0  0  0
   -1.9236    3.5141   -5.8227 H   0  0  0  0  0  0
   -1.9395    6.0166   -5.6768 H   0  0  0  0  0  0
  1  6  2  0  0  0
  1  2  1  0  0  0
  1 30  1  0  0  0
  2 19  1  0  0  0
  2  3  2  0  0  0
  3  4  1  0  0  0
  3 31  1  0  0  0
  4  5  2  0  0  0
  4 32  1  0  0  0
  5  6  1  0  0  0
  5 33  1  0  0  0
  6  7  1  0  0  0
  7  8  1  0  0  0
  7 34  1  0  0  0
  7 35  1  0  0  0
  8  9  1  0  0  0
  8 10  1  0  0  0
  8 36  1  0  0  0
  9 16  1  0  0  0
  9 37  1  0  0  0
 10 11  2  0  0  0
 10 12  1  0  0  0
 12 13  1  0  0  0
 12 38  1  0  0  0
 13 14  1  0  0  0
 13 39  1  0  0  0
 13 40  1  0  0  0
 14 15  3  0  0  0
 16 17  2  0  0  0
 16 18  1  0  0  0
 18 20  2  0  0  0
 18 24  1  0  0  0
 19 25  2  0  0  0
 19 29  1  0  0  0
 20 21  1  0  0  0
 20 41  1  0  0  0
 21 22  2  0  0  0
 21 42  1  0  0  0
 22 23  1  0  0  0
 22 43  1  0  0  0
 23 24  2  0  0  0
 23 44  1  0  0  0
 24 45  1  0  0  0
 25 26  1  0  0  0
 25 46  1  0  0  0
 26 27  2  0  0  0
 26 47  1  0  0  0
 27 28  1  0  0  0
 27 48  1  0  0  0
 28 29  2  0  0  0
M  END
> <chembl_id>
CHEMBL556436

> <chembl_pref_name>
None

> <i_m_ct_stereo_status>
1

> <s_m_source_file>
sdf/inactives_sanitized.sdf

> <i_m_source_file_index>
564

> <i_lp_mmshare_version>
49012

> <i_f3d_flags>
0

> <s_epik_input>
bjFuW2NIXVtjSF1bY0hdYzEtYzJbY0hdYyhbY0hdW2NIXVtjSF0yKVtDSDJdW0NAQEhdKEMoPU8pW05IXVtDSDJdQyNOKVtOSF1DKD1PKWMzW2NIXVtjSF1bY0hdW2NIXVtjSF0z

> <s_epik_cmdline>
J2VwaWtfcHl0aG9uJywgJy1waHQnLCAnMC41JywgJy1waCcsICc3LjUnLCAnLW50JywgJy1tYScsICcyMDAnLCAnLWltYWUnLCAnPGluZmlsZS5tYWU+JywgJy1vbWFlJywgJzxvdXRmaWxlLm1hZT4n

> <r_lp_tautomer_probability>
1

> <r_epik_Ionization_Penalty>
  0.0000

> <r_epik_Ionization_Penalty_Charging>
  0.0000

> <r_epik_Ionization_Penalty_Neutral>
  0.0000

> <r_epik_State_Penalty>
 -0.0000

> <r_epik_Charging_Adjusted_Penalty>
0

> <i_epik_Tot_Q>
0

> <i_epik_Tot_abs_Q>
0

> <s_lp_Force_Field>
OPLS3e

> <r_lp_Energy>
40.171025

> <b_lp_Chiralities_Consistent>
1

> <s_lp_Variant>
sdf/inactives_sanitized.sdf:564-1

$$$$
sdf/inactives_sanitized.sdf:565
                    3D
 Schrodinger Suite 2020-1.
 36 36  0  0  1  0            999 V2000
   -0.0593    0.1192    0.0249 C   0  0  1  0  0  0
   -0.5446   -0.7048   -1.2283 C   0  0  1  0  0  0
   -2.0763   -0.9688   -1.2052 C   0  0  0  0  0  0
   -2.5318   -1.5862    0.1286 C   0  0  0  0  0  0
   -2.0866   -0.7369    1.3301 C   0  0  0  0  0  0
   -0.5608   -0.5401    1.3411 C   0  0  0  0  0  0
   -0.2151    0.0019   -2.5796 C   0  0  0  0  0  0
    1.4891    0.1634    0.0906 C   0  0  0  0  0  0
    2.1437   -0.8772    0.1808 O   0  0  0  0  0  0
   -0.1937    1.2360   -2.5994 O   0  0  0  0  0  0
    2.0605    1.3786    0.0274 N   0  0  0  0  0  0
    3.5011    1.6146    0.0034 C   0  0  0  0  0  0
    4.1409    1.1017   -1.2214 C   0  0  0  0  0  0
    4.6427    0.6991   -2.1833 N   0  0  0  0  0  0
    0.0526   -0.7332   -3.6931 N   0  0  0  0  0  0
    0.4780   -0.1096   -4.9501 C   0  0  0  0  0  0
   -0.0203   -2.1939   -3.7885 C   0  0  0  0  0  0
   -0.4231    1.1486   -0.0197 H   0  0  0  0  0  0
   -0.0117   -1.6560   -1.2227 H   0  0  0  0  0  0
   -2.6299   -0.0313   -1.2944 H   0  0  0  0  0  0
   -2.3735   -1.6702   -1.9864 H   0  0  0  0  0  0
   -3.6171   -1.6943    0.1347 H   0  0  0  0  0  0
   -2.1263   -2.5950    0.2227 H   0  0  0  0  0  0
   -2.5851    0.2334    1.3025 H   0  0  0  0  0  0
   -2.4049   -1.2160    2.2570 H   0  0  0  0  0  0
   -0.1484   -1.5442    1.4647 H   0  0  0  0  0  0
   -0.3337    0.0861    2.2061 H   0  0  0  0  0  0
    1.4693    2.1866   -0.1038 H   0  0  0  0  0  0
    3.6848    2.6876    0.0557 H   0  0  0  0  0  0
    3.9834    1.1637    0.8722 H   0  0  0  0  0  0
    0.5423    0.9779   -4.8956 H   0  0  0  0  0  0
   -0.2220   -0.3579   -5.7486 H   0  0  0  0  0  0
    1.4615   -0.4819   -5.2387 H   0  0  0  0  0  0
   -0.4845   -2.6797   -2.9326 H   0  0  0  0  0  0
    0.9795   -2.6110   -3.9135 H   0  0  0  0  0  0
   -0.6096   -2.4778   -4.6611 H   0  0  0  0  0  0
  1  2  1  0  0  0
  1  6  1  0  0  0
  1  8  1  0  0  0
  1 18  1  0  0  0
  2  3  1  0  0  0
  2  7  1  0  0  0
  2 19  1  0  0  0
  3  4  1  0  0  0
  3 20  1  0  0  0
  3 21  1  0  0  0
  4  5  1  0  0  0
  4 22  1  0  0  0
  4 23  1  0  0  0
  5  6  1  0  0  0
  5 24  1  0  0  0
  5 25  1  0  0  0
  6 26  1  0  0  0
  6 27  1  0  0  0
  7 10  2  0  0  0
  7 15  1  0  0  0
  8  9  2  0  0  0
  8 11  1  0  0  0
 11 12  1  0  0  0
 11 28  1  0  0  0
 12 13  1  0  0  0
 12 29  1  0  0  0
 12 30  1  0  0  0
 13 14  3  0  0  0
 15 16  1  0  0  0
 15 17  1  0  0  0
 16 31  1  0  0  0
 16 32  1  0  0  0
 16 33  1  0  0  0
 17 34  1  0  0  0
 17 35  1  0  0  0
 17 36  1  0  0  0
M  END
> <chembl_id>
CHEMBL2164671

> <chembl_pref_name>
None

> <i_m_ct_stereo_status>
1

> <s_m_source_file>
sdf/inactives_sanitized.sdf

> <i_m_source_file_index>
565

> <i_lp_mmshare_version>
49012

> <i_f3d_flags>
0

> <s_epik_input>
TiNDW0NIMl1bTkhdQyg9TylbQ0BIXTFbQ0BIXShDKD1PKU4oW0NIM10pW0NIM10pW0NIMl1bQ0gyXVtDSDJdW0NIMl0x

> <s_epik_cmdline>
J2VwaWtfcHl0aG9uJywgJy1waHQnLCAnMC41JywgJy1waCcsICc3LjUnLCAnLW50JywgJy1tYScsICcyMDAnLCAnLWltYWUnLCAnPGluZmlsZS5tYWU+JywgJy1vbWFlJywgJzxvdXRmaWxlLm1hZT4n

> <r_lp_tautomer_probability>
1

> <r_epik_Ionization_Penalty>
  0.0000

> <r_epik_Ionization_Penalty_Charging>
  0.0000

> <r_epik_Ionization_Penalty_Neutral>
  0.0000

> <r_epik_State_Penalty>
 -0.0000

> <r_epik_Charging_Adjusted_Penalty>
0

> <i_epik_Tot_Q>
0

> <i_epik_Tot_abs_Q>
0

> <s_lp_Force_Field>
OPLS3e

> <r_lp_Energy>
25.559877

> <b_lp_Chiralities_Consistent>
1

> <s_lp_Variant>
sdf/inactives_sanitized.sdf:565-1

$$$$
sdf/inactives_sanitized.sdf:566
                    3D
 Schrodinger Suite 2020-1.
 68 70  0  0  1  0            999 V2000
    2.6217    1.2242    2.8040 C   0  0  0  0  0  0
    2.6079    0.1084    1.9745 N   0  0  0  0  0  0
    0.5216    0.2349    0.5628 C   0  0  0  0  0  0
    2.0685    0.1788    0.6046 C   0  0  2  0  0  0
    2.2499    2.3625    2.5061 O   0  0  0  0  0  0
   -0.1444   -0.3186    1.4404 O   0  0  0  0  0  0
    3.1142    0.8647    4.0045 O   0  0  0  0  0  0
    2.5842   -1.0413   -0.2073 C   0  0  0  0  0  0
   -2.2550    0.1871   -8.5943 O   0  0  0  0  0  0
   -0.0116    0.8800   -0.4878 N   0  0  0  0  0  0
   -2.0699    0.2085   -7.2318 C   0  0  0  0  0  0
   -1.6628    0.2253   -4.4686 C   0  0  0  0  0  0
   -1.4439    0.1656   -3.0813 N   0  0  0  0  0  0
    3.2532    1.8192    5.0513 C   0  0  0  0  0  0
   -3.5133    0.3402   -9.1438 C   0  0  0  0  0  0
   -2.2196    1.3965   -6.5140 C   0  0  0  0  0  0
   -1.7060   -0.9654   -6.5749 C   0  0  0  0  0  0
   -2.0192    1.4057   -5.1362 C   0  0  0  0  0  0
   -1.5061   -0.9563   -5.1971 C   0  0  0  0  0  0
    3.8215    1.1502    6.2920 C   0  0  0  0  0  0
    4.1202   -1.1162   -0.3893 C   0  0  0  0  0  0
   -1.4464    1.0263   -0.7249 C   0  0  0  0  0  0
   -1.7758    1.2852   -2.2046 C   0  0  0  0  0  0
   -3.5777    0.6549  -10.5025 C   0  0  0  0  0  0
   -4.7032    0.1667   -8.4184 C   0  0  0  0  0  0
    3.1177    1.2117    7.4974 C   0  0  0  0  0  0
    5.0498    0.4852    6.2299 C   0  0  0  0  0  0
    4.6869    0.1105   -1.1360 C   0  0  0  0  0  0
    4.5339   -2.4462   -1.0556 C   0  0  0  0  0  0
    3.6379    0.6037    8.6371 C   0  0  0  0  0  0
   -4.8095    0.8111  -11.1325 C   0  0  0  0  0  0
   -5.9356    0.3233   -9.0475 C   0  0  0  0  0  0
    5.5695   -0.1222    7.3701 C   0  0  0  0  0  0
    4.8609   -0.0608    8.5683 C   0  0  0  0  0  0
   -5.9834    0.6460  -10.4015 C   0  0  0  0  0  0
    2.8576   -0.7939    2.3518 H   0  0  0  0  0  0
    2.4499    1.0844    0.1269 H   0  0  0  0  0  0
    2.2375   -1.9585    0.2738 H   0  0  0  0  0  0
    2.1281   -1.0443   -1.1997 H   0  0  0  0  0  0
    0.6045    1.3143   -1.1601 H   0  0  0  0  0  0
   -1.4177   -0.7528   -2.6613 H   0  0  0  0  0  0
    3.9202    2.6269    4.7456 H   0  0  0  0  0  0
    2.2830    2.2653    5.2781 H   0  0  0  0  0  0
   -2.4928    2.3079   -7.0253 H   0  0  0  0  0  0
   -1.5817   -1.8823   -7.1321 H   0  0  0  0  0  0
   -2.1448    2.3370   -4.6050 H   0  0  0  0  0  0
   -1.2273   -1.8746   -4.7004 H   0  0  0  0  0  0
    4.5699   -1.1235    0.6045 H   0  0  0  0  0  0
   -1.9741    0.1256   -0.4024 H   0  0  0  0  0  0
   -1.8286    1.8445   -0.1129 H   0  0  0  0  0  0
   -1.2930    2.1998   -2.5511 H   0  0  0  0  0  0
   -2.8465    1.4694   -2.3033 H   0  0  0  0  0  0
   -2.6675    0.7812  -11.0708 H   0  0  0  0  0  0
   -4.6814   -0.0922   -7.3702 H   0  0  0  0  0  0
    2.1697    1.7270    7.5535 H   0  0  0  0  0  0
    5.5994    0.4378    5.3008 H   0  0  0  0  0  0
    3.9103    0.6578   -1.6708 H   0  0  0  0  0  0
    5.4498   -0.1562   -1.8673 H   0  0  0  0  0  0
    5.1505    0.8048   -0.4345 H   0  0  0  0  0  0
    4.9627   -2.3050   -2.0478 H   0  0  0  0  0  0
    3.6888   -3.1250   -1.1748 H   0  0  0  0  0  0
    5.2782   -2.9660   -0.4518 H   0  0  0  0  0  0
    3.0957    0.6471    9.5700 H   0  0  0  0  0  0
   -4.8542    1.0566  -12.1832 H   0  0  0  0  0  0
   -6.8503    0.1919   -8.4883 H   0  0  0  0  0  0
    6.5174   -0.6382    7.3257 H   0  0  0  0  0  0
    5.2641   -0.5318    9.4527 H   0  0  0  0  0  0
   -6.9393    0.7665  -10.8899 H   0  0  0  0  0  0
  1  2  1  0  0  0
  1  5  2  0  0  0
  1  7  1  0  0  0
  2  4  1  0  0  0
  2 36  1  0  0  0
  3  4  1  0  0  0
  3  6  2  0  0  0
  3 10  1  0  0  0
  4  8  1  0  0  0
  4 37  1  0  0  0
  7 14  1  0  0  0
  8 21  1  0  0  0
  8 38  1  0  0  0
  8 39  1  0  0  0
  9 11  1  0  0  0
  9 15  1  0  0  0
 10 22  1  0  0  0
 10 40  1  0  0  0
 11 17  2  0  0  0
 11 16  1  0  0  0
 12 13  1  0  0  0
 12 18  1  0  0  0
 12 19  2  0  0  0
 13 23  1  0  0  0
 13 41  1  0  0  0
 14 20  1  0  0  0
 14 42  1  0  0  0
 14 43  1  0  0  0
 15 24  2  0  0  0
 15 25  1  0  0  0
 16 18  2  0  0  0
 16 44  1  0  0  0
 17 19  1  0  0  0
 17 45  1  0  0  0
 18 46  1  0  0  0
 19 47  1  0  0  0
 20 26  2  0  0  0
 20 27  1  0  0  0
 21 28  1  0  0  0
 21 29  1  0  0  0
 21 48  1  0  0  0
 22 23  1  0  0  0
 22 49  1  0  0  0
 22 50  1  0  0  0
 23 51  1  0  0  0
 23 52  1  0  0  0
 24 31  1  0  0  0
 24 53  1  0  0  0
 25 32  2  0  0  0
 25 54  1  0  0  0
 26 30  1  0  0  0
 26 55  1  0  0  0
 27 33  2  0  0  0
 27 56  1  0  0  0
 28 57  1  0  0  0
 28 58  1  0  0  0
 28 59  1  0  0  0
 29 60  1  0  0  0
 29 61  1  0  0  0
 29 62  1  0  0  0
 30 34  2  0  0  0
 30 63  1  0  0  0
 31 35  2  0  0  0
 31 64  1  0  0  0
 32 35  1  0  0  0
 32 65  1  0  0  0
 33 34  1  0  0  0
 33 66  1  0  0  0
 34 67  1  0  0  0
 35 68  1  0  0  0
M  END
> <chembl_id>
CHEMBL62207

> <chembl_pref_name>
None

> <i_m_ct_stereo_status>
1

> <s_m_source_file>
sdf/inactives_sanitized.sdf

> <i_m_source_file_index>
566

> <i_lp_mmshare_version>
49012

> <i_f3d_flags>
0

> <s_epik_input>
W2NIXTFbY0hdW2NIXVtjSF1bY0hdYzFbQ0gyXU9DKD1PKVtOSF1bQ0BASF0oW0NIMl1bQ0hdKFtDSDNdKVtDSDNdKUMoPU8pW05IXVtDSDJdW0NIMl1bTkhdYyhbY0hdW2NIXTIpW2NIXVtjSF1jMk9jM1tjSF1bY0hdW2NIXVtjSF1bY0hdMw==

> <s_epik_cmdline>
J2VwaWtfcHl0aG9uJywgJy1waHQnLCAnMC41JywgJy1waCcsICc3LjUnLCAnLW50JywgJy1tYScsICcyMDAnLCAnLWltYWUnLCAnPGluZmlsZS5tYWU+JywgJy1vbWFlJywgJzxvdXRmaWxlLm1hZT4n

> <r_lp_tautomer_probability>
1

> <r_epik_Ionization_Penalty>
  0.0014

> <r_epik_Ionization_Penalty_Charging>
  0.0000

> <r_epik_Ionization_Penalty_Neutral>
  0.0014

> <r_epik_State_Penalty>
 -0.0000

> <r_epik_Charging_Adjusted_Penalty>
0

> <i_epik_Tot_Q>
0

> <i_epik_Tot_abs_Q>
0

> <s_epik_Chemistry_Notes>
This compound has an ester and may undergo hydrolysis at high or low pH.

> <s_lp_Force_Field>
OPLS3e

> <r_lp_Energy>
42.732818

> <b_lp_Chiralities_Consistent>
1

> <s_lp_Variant>
sdf/inactives_sanitized.sdf:566-1

$$$$
sdf/inactives_sanitized.sdf:567
                    3D
 Schrodinger Suite 2020-1.
 37 38  0  0  1  0            999 V2000
   -4.3195    0.4344   -1.3016 S   0  0  0  0  0  0
   -0.5679    0.8691   -0.3070 N   0  0  0  0  0  0
   -1.8418    0.4347   -0.4410 N   0  0  0  0  0  0
   -2.4593    2.1859   -1.8718 N   0  0  0  0  0  0
    0.2141    0.1534    0.4137 C   0  0  0  0  0  0
    2.1895    1.7249   -0.2317 C   0  0  0  0  0  0
    0.2674   -2.4067    0.5160 C   0  0  0  0  0  0
    1.7013    0.5095    0.5561 C   0  0  0  0  0  0
   -0.1691   -1.1168    1.2019 C   0  0  0  0  0  0
    2.6339    1.5695   -1.5483 C   0  0  0  0  0  0
    1.4207   -3.0723    0.9427 C   0  0  0  0  0  0
    2.2119    2.9866    0.3703 C   0  0  0  0  0  0
   -0.4993   -2.9359   -0.5272 C   0  0  0  0  0  0
    3.0879    2.6740   -2.2641 C   0  0  0  0  0  0
    1.8141   -4.2531    0.3185 C   0  0  0  0  0  0
    2.6668    4.0905   -0.3461 C   0  0  0  0  0  0
   -0.1049   -4.1164   -1.1514 C   0  0  0  0  0  0
   -2.7888    1.0553   -1.1996 C   0  0  0  0  0  0
    3.1018    3.9293   -1.6599 C   0  0  0  0  0  0
    1.0505   -4.7687   -0.7266 C   0  0  0  0  0  0
   -3.1519    2.6506   -2.4410 H   0  0  0  0  0  0
   -1.5211    2.5536   -1.8032 H   0  0  0  0  0  0
    1.9349    0.6620    1.6111 H   0  0  0  0  0  0
    2.3076   -0.3471    0.2578 H   0  0  0  0  0  0
    0.2645   -1.0708    2.2022 H   0  0  0  0  0  0
   -1.2425   -1.1764    1.3860 H   0  0  0  0  0  0
    2.6227    0.5960   -2.0168 H   0  0  0  0  0  0
    2.0153   -2.6735    1.7519 H   0  0  0  0  0  0
    1.8744    3.1127    1.3889 H   0  0  0  0  0  0
   -1.3960   -2.4321   -0.8579 H   0  0  0  0  0  0
    3.4285    2.5576   -3.2825 H   0  0  0  0  0  0
    2.7074   -4.7665    0.6428 H   0  0  0  0  0  0
    2.6826    5.0671    0.1149 H   0  0  0  0  0  0
   -0.6922   -4.5243   -1.9609 H   0  0  0  0  0  0
    3.4546    4.7859   -2.2153 H   0  0  0  0  0  0
    1.3562   -5.6840   -1.2117 H   0  0  0  0  0  0
   -2.0674   -0.4160    0.0540 H   0  0  0  0  0  0
  1 18  2  0  0  0
  2  3  1  0  0  0
  2  5  2  3  0  0
  3 18  1  0  0  0
  3 37  1  0  0  0
  4 18  1  0  0  0
  4 21  1  0  0  0
  4 22  1  0  0  0
  5  8  1  0  0  0
  5  9  1  0  0  0
  6  8  1  0  0  0
  6 10  2  0  0  0
  6 12  1  0  0  0
  7  9  1  0  0  0
  7 11  2  0  0  0
  7 13  1  0  0  0
  8 23  1  0  0  0
  8 24  1  0  0  0
  9 25  1  0  0  0
  9 26  1  0  0  0
 10 14  1  0  0  0
 10 27  1  0  0  0
 11 15  1  0  0  0
 11 28  1  0  0  0
 12 16  2  0  0  0
 12 29  1  0  0  0
 13 17  2  0  0  0
 13 30  1  0  0  0
 14 19  2  0  0  0
 14 31  1  0  0  0
 15 20  2  0  0  0
 15 32  1  0  0  0
 16 19  1  0  0  0
 16 33  1  0  0  0
 17 20  1  0  0  0
 17 34  1  0  0  0
 19 35  1  0  0  0
 20 36  1  0  0  0
M  END
> <chembl_id>
CHEMBL1341853

> <chembl_pref_name>
None

> <s_m_source_file>
sdf/inactives_sanitized.sdf

> <i_m_source_file_index>
567

> <i_lp_mmshare_version>
49012

> <i_m_ct_stereo_status>
1

> <i_f3d_flags>
0

> <s_epik_input>
W2NIXTFbY0hdW2NIXVtjSF1bY0hdYzFbQ0gyXUMoPU4vTj1DKC9bU0hdKVtOSDJdKVtDSDJdYzJbY0hdW2NIXVtjSF1bY0hdW2NIXTI=

> <s_epik_cmdline>
J2VwaWtfcHl0aG9uJywgJy1waHQnLCAnMC41JywgJy1waCcsICc3LjUnLCAnLW50JywgJy1tYScsICcyMDAnLCAnLWltYWUnLCAnPGluZmlsZS5tYWU+JywgJy1vbWFlJywgJzxvdXRmaWxlLm1hZT4n

> <r_lp_tautomer_probability>
1

> <r_epik_Ionization_Penalty>
  0.0005

> <r_epik_Ionization_Penalty_Charging>
  0.0000

> <r_epik_Ionization_Penalty_Neutral>
  0.0005

> <r_epik_State_Penalty>
 -0.0000

> <r_epik_Charging_Adjusted_Penalty>
0

> <i_epik_Tot_Q>
0

> <i_epik_Tot_abs_Q>
0

> <s_epik_Chemistry_Notes>
This compound has an imine and may undergo hydrolysis.

> <s_lp_Force_Field>
OPLS3e

> <r_lp_Energy>
32.365296

> <b_lp_Chiralities_Consistent>
1

> <s_lp_Variant>
sdf/inactives_sanitized.sdf:567-1

$$$$
sdf/inactives_sanitized.sdf:568
                    3D
 Schrodinger Suite 2020-1.
 75 77  0  0  1  0            999 V2000
   -3.3926    4.2437   -0.3406 N   0  0  0  0  0  0
    0.7273   -1.3194   -1.4440 C   0  0  0  0  0  0
    1.2440    0.1772   -1.2776 C   0  0  0  0  0  0
   -3.5547    3.6109    0.8304 N   0  0  0  0  0  0
   -1.4863    1.1636   -0.1742 C   0  0  0  0  0  0
   -2.4931    5.1862   -0.1250 C   0  0  0  0  0  0
   -0.6634    8.7849   -4.3406 C   0  0  0  0  0  0
    0.6871   -1.6899   -2.7438 N   0  0  0  0  0  0
   -2.0716    5.1620    1.2177 C   0  0  0  0  0  0
   -0.3853    0.7127    0.5484 N   0  0  0  0  0  0
    1.0054    0.8786    0.0678 C   0  0  1  0  0  0
   -4.4425    2.4551    0.9122 C   0  0  0  0  0  0
   -2.7642    4.1306    1.8194 C   0  0  0  0  0  0
   -3.9153    1.2522    0.0769 C   0  0  1  0  0  0
   -2.6028    0.9072    0.5436 O   0  0  0  0  0  0
    0.2702   -2.9185   -3.2851 C   0  0  0  0  0  0
   -1.1598    7.8404   -3.2466 C   0  0  0  0  0  0
   -2.0357    6.1071   -1.2186 C   0  0  0  0  0  0
   -4.8248   -0.0234    0.0796 C   0  0  0  0  0  0
    1.8273    0.7408   -2.2073 O   0  0  0  0  0  0
   -0.3331   -3.8762   -2.5214 N   0  0  0  0  0  0
    0.4091   -1.9985   -0.4661 O   0  0  0  0  0  0
   -1.4663    1.7135   -1.2777 O   0  0  0  0  0  0
   -2.2523    6.9957   -3.4653 C   0  0  0  0  0  0
   -0.5052    7.8106   -2.0123 C   0  0  0  0  0  0
   -2.6862    6.1372   -2.4590 C   0  0  0  0  0  0
   -0.9400    6.9514   -1.0069 C   0  0  0  0  0  0
   -1.1973    8.5083   -5.5321 F   0  0  0  0  0  0
   -0.9860   10.0372   -4.0171 F   0  0  0  0  0  0
    0.6629    8.7035   -4.4559 F   0  0  0  0  0  0
    2.0425    0.3962    1.1155 C   0  0  0  0  0  0
   -4.2004   -1.1044   -0.8395 C   0  0  0  0  0  0
   -6.2276    0.3150   -0.4808 C   0  0  0  0  0  0
   -4.9829   -0.6138    1.5028 C   0  0  0  0  0  0
   -0.7224   -5.0307   -3.1191 C   0  0  0  0  0  0
    0.4852   -3.0992   -4.6563 C   0  0  0  0  0  0
    1.9759    1.1689    2.4494 C   0  0  0  0  0  0
    3.0258    0.6959    3.4700 C   0  0  0  0  0  0
   -0.5351   -5.2782   -4.4790 C   0  0  0  0  0  0
    2.9699    1.4789    4.7887 C   0  0  0  0  0  0
    0.0786   -4.2939   -5.2545 C   0  0  0  0  0  0
    1.0201   -1.0156   -3.4174 H   0  0  0  0  0  0
   -1.3463    5.8080    1.6892 H   0  0  0  0  0  0
   -0.5118    0.5712    1.5398 H   0  0  0  0  0  0
    1.1651    1.9532   -0.0495 H   0  0  0  0  0  0
   -4.5574    2.1852    1.9624 H   0  0  0  0  0  0
   -5.4241    2.7768    0.5644 H   0  0  0  0  0  0
   -2.7629    3.7247    2.8204 H   0  0  0  0  0  0
   -3.8668    1.5848   -0.9623 H   0  0  0  0  0  0
   -2.7743    6.9996   -4.4110 H   0  0  0  0  0  0
    0.3422    8.4553   -1.8287 H   0  0  0  0  0  0
   -3.5342    5.4963   -2.6524 H   0  0  0  0  0  0
   -0.4131    6.9489   -0.0645 H   0  0  0  0  0  0
    1.9014   -0.6662    1.3227 H   0  0  0  0  0  0
    3.0503    0.5021    0.7084 H   0  0  0  0  0  0
   -4.8376   -1.9866   -0.9172 H   0  0  0  0  0  0
   -3.2328   -1.4459   -0.4691 H   0  0  0  0  0  0
   -4.0437   -0.7275   -1.8511 H   0  0  0  0  0  0
   -6.1627    0.7932   -1.4591 H   0  0  0  0  0  0
   -6.7814    0.9859    0.1760 H   0  0  0  0  0  0
   -6.8393   -0.5806   -0.5988 H   0  0  0  0  0  0
   -5.5741   -1.5306    1.4897 H   0  0  0  0  0  0
   -5.4868    0.0774    2.1784 H   0  0  0  0  0  0
   -4.0183   -0.8612    1.9477 H   0  0  0  0  0  0
   -1.1955   -5.7656   -2.4846 H   0  0  0  0  0  0
    0.9588   -2.3332   -5.2537 H   0  0  0  0  0  0
    2.1164    2.2337    2.2565 H   0  0  0  0  0  0
    0.9830    1.0626    2.8890 H   0  0  0  0  0  0
    2.8816   -0.3653    3.6784 H   0  0  0  0  0  0
    4.0246    0.7901    3.0413 H   0  0  0  0  0  0
   -0.8584   -6.2086   -4.9217 H   0  0  0  0  0  0
    3.7208    1.1140    5.4902 H   0  0  0  0  0  0
    1.9949    1.3800    5.2671 H   0  0  0  0  0  0
    3.1574    2.5409    4.6262 H   0  0  0  0  0  0
    0.2366   -4.4541   -6.3107 H   0  0  0  0  0  0
  1  4  1  0  0  0
  1  6  2  0  0  0
  2  3  1  0  0  0
  2  8  1  0  0  0
  2 22  2  0  0  0
  3 11  1  0  0  0
  3 20  2  0  0  0
  4 12  1  0  0  0
  4 13  1  0  0  0
  5 15  1  0  0  0
  5 10  1  0  0  0
  5 23  2  0  0  0
  6  9  1  0  0  0
  6 18  1  0  0  0
  7 17  1  0  0  0
  7 28  1  0  0  0
  7 29  1  0  0  0
  7 30  1  0  0  0
  8 16  1  0  0  0
  8 42  1  0  0  0
  9 13  2  0  0  0
  9 43  1  0  0  0
 10 11  1  0  0  0
 10 44  1  0  0  0
 11 31  1  0  0  0
 11 45  1  0  0  0
 12 14  1  0  0  0
 12 46  1  0  0  0
 12 47  1  0  0  0
 13 48  1  0  0  0
 14 15  1  0  0  0
 14 19  1  0  0  0
 14 49  1  0  0  0
 16 21  2  0  0  0
 16 36  1  0  0  0
 17 25  2  0  0  0
 17 24  1  0  0  0
 18 26  1  0  0  0
 18 27  2  0  0  0
 19 32  1  0  0  0
 19 33  1  0  0  0
 19 34  1  0  0  0
 21 35  1  0  0  0
 24 26  2  0  0  0
 24 50  1  0  0  0
 25 27  1  0  0  0
 25 51  1  0  0  0
 26 52  1  0  0  0
 27 53  1  0  0  0
 31 37  1  0  0  0
 31 54  1  0  0  0
 31 55  1  0  0  0
 32 56  1  0  0  0
 32 57  1  0  0  0
 32 58  1  0  0  0
 33 59  1  0  0  0
 33 60  1  0  0  0
 33 61  1  0  0  0
 34 62  1  0  0  0
 34 63  1  0  0  0
 34 64  1  0  0  0
 35 39  2  0  0  0
 35 65  1  0  0  0
 36 41  2  0  0  0
 36 66  1  0  0  0
 37 38  1  0  0  0
 37 67  1  0  0  0
 37 68  1  0  0  0
 38 40  1  0  0  0
 38 69  1  0  0  0
 38 70  1  0  0  0
 39 41  1  0  0  0
 39 71  1  0  0  0
 40 72  1  0  0  0
 40 73  1  0  0  0
 40 74  1  0  0  0
 41 75  1  0  0  0
M  END
> <chembl_id>
CHEMBL188929

> <chembl_pref_name>
None

> <i_m_ct_stereo_status>
1

> <s_m_source_file>
sdf/inactives_sanitized.sdf

> <i_m_source_file_index>
568

> <i_lp_mmshare_version>
49012

> <i_f3d_flags>
0

> <s_epik_input>
RkMoRikoRiljMVtjSF1bY0hdYyhbY0hdW2NIXTEpLWMoW2NIXVtjSF0yKW5uMltDSDJdW0NASF0oQyhbQ0gzXSkoW0NIM10pW0NIM10pT0MoPU8pW05IXVtDQEBIXShbQ0gyXVtDSDJdW0NIMl1bQ0gzXSlDKD1PKUMoPU8pW05IXWMzbltjSF1bY0hdW2NIXVtjSF0z

> <s_epik_cmdline>
J2VwaWtfcHl0aG9uJywgJy1waHQnLCAnMC41JywgJy1waCcsICc3LjUnLCAnLW50JywgJy1tYScsICcyMDAnLCAnLWltYWUnLCAnPGluZmlsZS5tYWU+JywgJy1vbWFlJywgJzxvdXRmaWxlLm1hZT4n

> <r_lp_tautomer_probability>
1

> <r_epik_Ionization_Penalty>
  0.0002

> <r_epik_Ionization_Penalty_Charging>
  0.0000

> <r_epik_Ionization_Penalty_Neutral>
  0.0002

> <r_epik_State_Penalty>
 -0.0000

> <r_epik_Charging_Adjusted_Penalty>
0

> <i_epik_Tot_Q>
0

> <i_epik_Tot_abs_Q>
0

> <s_epik_Chemistry_Notes>
This compound has an ester and may undergo hydrolysis at high or low pH.

> <s_lp_Force_Field>
OPLS3e

> <r_lp_Energy>
44.771346

> <b_lp_Chiralities_Consistent>
1

> <s_lp_Variant>
sdf/inactives_sanitized.sdf:568-1

$$$$
sdf/inactives_sanitized.sdf:569
                    3D
 Schrodinger Suite 2020-1.
 35 37  0  0  1  0            999 V2000
   -2.7324    0.0104   -0.2031 C   0  0  0  0  0  0
   -2.0120   -1.1594   -0.0025 N   0  0  0  0  0  0
   -0.6437   -1.2765    0.2331 C   0  0  0  0  0  0
    0.0140   -0.0659    0.0462 N   0  0  0  0  0  0
   -0.6117    1.1816    0.0018 N   0  0  0  0  0  0
   -1.8834    1.2019   -0.1421 C   0  0  0  0  0  0
   -0.0707   -2.3324    0.5300 O   0  0  0  0  0  0
   -2.5062    2.5053   -0.2402 C   0  0  0  0  0  0
   -2.9685    3.5646   -0.3061 N   0  0  0  0  0  0
   -3.9496    0.0734   -0.4031 O   0  0  0  0  0  0
   -2.7529   -2.3656   -0.0157 C   0  0  0  0  0  0
    1.4313   -0.0075    0.0464 C   0  0  0  0  0  0
    2.1099    0.8787    0.8975 C   0  0  0  0  0  0
    3.5022    0.9360    0.8924 C   0  0  0  0  0  0
    4.2334    0.1140    0.0366 C   0  0  0  0  0  0
    3.5796   -0.7729   -0.8266 C   0  0  0  0  0  0
    2.1803   -0.8251   -0.8161 C   0  0  0  0  0  0
    4.3802   -1.6705   -1.7688 C   0  0  0  0  0  0
    3.7402   -2.8156   -2.0128 F   0  0  0  0  0  0
    4.5585   -1.0313   -2.9245 F   0  0  0  0  0  0
    5.5775   -1.9682   -1.2606 F   0  0  0  0  0  0
   -3.3715   -2.8186    1.1566 C   0  0  0  0  0  0
   -4.0957   -4.0074    1.1395 C   0  0  0  0  0  0
   -4.1991   -4.7372   -0.0432 C   0  0  0  0  0  0
   -3.5851   -4.2914   -1.2122 C   0  0  0  0  0  0
   -2.8593   -3.1034   -1.2014 C   0  0  0  0  0  0
    1.5625    1.5207    1.5729 H   0  0  0  0  0  0
    4.0161    1.6182    1.5535 H   0  0  0  0  0  0
    5.3122    0.1743    0.0454 H   0  0  0  0  0  0
    1.6694   -1.5008   -1.4877 H   0  0  0  0  0  0
   -3.2907   -2.2534    2.0739 H   0  0  0  0  0  0
   -4.5751   -4.3627    2.0396 H   0  0  0  0  0  0
   -4.7615   -5.6594   -0.0535 H   0  0  0  0  0  0
   -3.6720   -4.8654   -2.1229 H   0  0  0  0  0  0
   -2.3822   -2.7582   -2.1075 H   0  0  0  0  0  0
  1  2  1  0  0  0
  1 10  2  0  0  0
  1  6  1  0  0  0
  2  3  1  0  0  0
  2 11  1  0  0  0
  3  7  2  0  0  0
  3  4  1  0  0  0
  4  5  1  0  0  0
  4 12  1  0  0  0
  5  6  2  0  0  0
  6  8  1  0  0  0
  8  9  3  0  0  0
 11 22  2  0  0  0
 11 26  1  0  0  0
 12 13  2  0  0  0
 12 17  1  0  0  0
 13 14  1  0  0  0
 13 27  1  0  0  0
 14 15  2  0  0  0
 14 28  1  0  0  0
 15 16  1  0  0  0
 15 29  1  0  0  0
 16 17  2  0  0  0
 16 18  1  0  0  0
 17 30  1  0  0  0
 18 19  1  0  0  0
 18 20  1  0  0  0
 18 21  1  0  0  0
 22 23  1  0  0  0
 22 31  1  0  0  0
 23 24  2  0  0  0
 23 32  1  0  0  0
 24 25  1  0  0  0
 24 33  1  0  0  0
 25 26  2  0  0  0
 25 34  1  0  0  0
 26 35  1  0  0  0
M  END
> <chembl_id>
CHEMBL1079012

> <chembl_pref_name>
None

> <s_m_source_file>
sdf/inactives_sanitized.sdf

> <i_m_source_file_index>
569

> <i_lp_mmshare_version>
49012

> <i_m_ct_stereo_status>
1

> <i_f3d_flags>
0

> <s_epik_input>
W2NIXTFbY0hdW2NIXVtjSF1bY0hdYzEtbihjMj1PKWMoPU8pbihuYzJDI04pLWMzW2NIXVtjSF1bY0hdYyhbY0hdMylDKEYpKEYpRg==

> <s_epik_cmdline>
J2VwaWtfcHl0aG9uJywgJy1waHQnLCAnMC41JywgJy1waCcsICc3LjUnLCAnLW50JywgJy1tYScsICcyMDAnLCAnLWltYWUnLCAnPGluZmlsZS5tYWU+JywgJy1vbWFlJywgJzxvdXRmaWxlLm1hZT4n

> <r_lp_tautomer_probability>
1

> <r_epik_Ionization_Penalty>
  0.0000

> <r_epik_Ionization_Penalty_Charging>
  0.0000

> <r_epik_Ionization_Penalty_Neutral>
  0.0000

> <r_epik_State_Penalty>
 -0.0000

> <r_epik_Charging_Adjusted_Penalty>
4.31511119263945e-13

> <i_epik_Tot_Q>
0

> <i_epik_Tot_abs_Q>
0

> <s_lp_Force_Field>
OPLS3e

> <r_lp_Energy>
77.172577

> <b_lp_Chiralities_Consistent>
1

> <s_lp_Variant>
sdf/inactives_sanitized.sdf:569-1

$$$$
sdf/inactives_sanitized.sdf:570
                    3D
 Schrodinger Suite 2020-1.
 74 77  0  0  1  0            999 V2000
   -1.1503   -3.5354    1.5589 C   0  0  0  0  0  0
   -0.3908   -2.5361    0.6761 C   0  0  0  0  0  0
   -0.6115   -1.0707    1.1030 C   0  0  0  0  0  0
    0.0927   -0.0420    0.1789 C   0  0  2  0  0  0
    1.5558   -0.1718    0.2147 N   0  0  0  0  0  0
    2.3247   -0.6169   -0.7949 C   0  0  0  0  0  0
    1.8555   -1.0464   -1.8510 O   0  0  0  0  0  0
    3.8525   -0.5783   -0.5454 C   0  0  2  0  0  0
    4.3853    0.8536   -0.4222 C   0  0  0  0  0  0
    4.8059    1.2159   -1.8384 C   0  0  2  0  0  0
    5.2424   -0.0955   -2.4967 C   0  0  0  0  0  0
    4.6442   -1.1450   -1.6581 N   0  0  0  0  0  0
    4.8614   -2.4782   -1.8167 C   0  0  0  0  0  0
    4.3590   -3.3035   -1.0492 O   0  0  0  0  0  0
    5.7243   -2.9862   -3.0083 C   0  0  0  0  0  0
    5.3991   -4.4061   -3.4621 C   0  0  0  0  0  0
    4.8634   -3.2374   -4.2443 C   0  0  0  0  0  0
    7.1627   -2.4722   -3.1273 C   0  0  0  0  0  0
    7.5904   -1.7637   -4.2568 C   0  0  0  0  0  0
    8.8975   -1.2900   -4.3310 C   0  0  0  0  0  0
    9.7797   -1.5247   -3.2782 C   0  0  0  0  0  0
   11.3991   -0.9348   -3.3702 Cl  0  0  0  0  0  0
    9.3638   -2.2303   -2.1512 C   0  0  0  0  0  0
    8.0566   -2.7028   -2.0765 C   0  0  0  0  0  0
    6.1592    2.5421   -1.8933 S   0  0  0  0  0  0
    7.3311    2.0276   -1.1745 O   0  0  0  0  0  0
    6.3049    3.0128   -3.2751 O   0  0  0  0  0  0
    5.4792    3.9043   -0.9266 C   0  0  0  0  0  0
    6.0649    4.2079    0.3093 C   0  0  0  0  0  0
    5.5705    5.2493    1.0930 C   0  0  0  0  0  0
    4.4836    5.9985    0.6501 C   0  0  0  0  0  0
    3.8903    5.7035   -0.5755 C   0  0  0  0  0  0
    4.3758    4.6595   -1.3667 C   0  0  0  0  0  0
    3.5759    4.3481   -2.8690 Cl  0  0  0  0  0  0
   -0.1847    1.4063    0.5838 C   0  0  0  0  0  0
   -0.7519    1.7226    1.6345 O   0  0  0  0  0  0
    0.2343    2.5256   -0.4699 C   0  0  0  0  0  0
    0.8343    2.2479   -1.5097 O   0  0  0  0  0  0
   -0.1424    3.7604   -0.0882 N   0  0  0  0  0  0
    0.0869    4.9818   -0.8627 C   0  0  0  0  0  0
   -0.9562    5.2390   -1.9689 C   0  0  0  0  0  0
   -0.7063    6.3893   -2.5934 F   0  0  0  0  0  0
   -0.9579    4.2748   -2.8897 F   0  0  0  0  0  0
   -2.1889    5.3122   -1.4657 F   0  0  0  0  0  0
   -0.9700   -4.5592    1.2302 H   0  0  0  0  0  0
   -2.2261   -3.3608    1.5204 H   0  0  0  0  0  0
   -0.8353   -3.4623    2.6003 H   0  0  0  0  0  0
    0.6724   -2.7777    0.7092 H   0  0  0  0  0  0
   -0.7047   -2.6684   -0.3603 H   0  0  0  0  0  0
   -1.6848   -0.8700    1.1164 H   0  0  0  0  0  0
   -0.2574   -0.9515    2.1292 H   0  0  0  0  0  0
   -0.3012   -0.1929   -0.8294 H   0  0  0  0  0  0
    1.9953    0.0895    1.0854 H   0  0  0  0  0  0
    3.9964   -1.1562    0.3694 H   0  0  0  0  0  0
    3.6981    1.5652    0.0392 H   0  0  0  0  0  0
    5.2517    0.8387    0.2411 H   0  0  0  0  0  0
    3.9609    1.6382   -2.3819 H   0  0  0  0  0  0
    4.9453   -0.1306   -3.5455 H   0  0  0  0  0  0
    6.3276   -0.1483   -2.4181 H   0  0  0  0  0  0
    6.2028   -5.0031   -3.8938 H   0  0  0  0  0  0
    4.6969   -5.0271   -2.9039 H   0  0  0  0  0  0
    5.2697   -3.0593   -5.2394 H   0  0  0  0  0  0
    3.7918   -3.0302   -4.2120 H   0  0  0  0  0  0
    6.9149   -1.5588   -5.0732 H   0  0  0  0  0  0
    9.2219   -0.7387   -5.2015 H   0  0  0  0  0  0
   10.0489   -2.4102   -1.3357 H   0  0  0  0  0  0
    7.7375   -3.2470   -1.1993 H   0  0  0  0  0  0
    6.9088    3.6414    0.6741 H   0  0  0  0  0  0
    6.0323    5.4765    2.0427 H   0  0  0  0  0  0
    4.1018    6.8077    1.2552 H   0  0  0  0  0  0
    3.0492    6.2918   -0.9115 H   0  0  0  0  0  0
   -0.6286    3.8663    0.7911 H   0  0  0  0  0  0
    0.0823    5.8193   -0.1643 H   0  0  0  0  0  0
    1.0867    4.9659   -1.2984 H   0  0  0  0  0  0
  1  2  1  0  0  0
  1 45  1  0  0  0
  1 46  1  0  0  0
  1 47  1  0  0  0
  2  3  1  0  0  0
  2 48  1  0  0  0
  2 49  1  0  0  0
  3  4  1  0  0  0
  3 50  1  0  0  0
  3 51  1  0  0  0
  4  5  1  0  0  0
  4 35  1  0  0  0
  4 52  1  0  0  0
  5  6  1  0  0  0
  5 53  1  0  0  0
  6  7  2  0  0  0
  6  8  1  0  0  0
  8  9  1  0  0  0
  8 12  1  0  0  0
  8 54  1  0  0  0
  9 10  1  0  0  0
  9 55  1  0  0  0
  9 56  1  0  0  0
 10 11  1  0  0  0
 10 25  1  0  0  0
 10 57  1  0  0  0
 11 12  1  0  0  0
 11 58  1  0  0  0
 11 59  1  0  0  0
 12 13  1  0  0  0
 13 14  2  0  0  0
 13 15  1  0  0  0
 15 16  1  0  0  0
 15 17  1  0  0  0
 15 18  1  0  0  0
 16 17  1  0  0  0
 16 60  1  0  0  0
 16 61  1  0  0  0
 17 62  1  0  0  0
 17 63  1  0  0  0
 18 19  2  0  0  0
 18 24  1  0  0  0
 19 20  1  0  0  0
 19 64  1  0  0  0
 20 21  2  0  0  0
 20 65  1  0  0  0
 21 22  1  0  0  0
 21 23  1  0  0  0
 23 24  2  0  0  0
 23 66  1  0  0  0
 24 67  1  0  0  0
 25 26  2  0  0  0
 25 27  2  0  0  0
 25 28  1  0  0  0
 28 29  2  0  0  0
 28 33  1  0  0  0
 29 30  1  0  0  0
 29 68  1  0  0  0
 30 31  2  0  0  0
 30 69  1  0  0  0
 31 32  1  0  0  0
 31 70  1  0  0  0
 32 33  2  0  0  0
 32 71  1  0  0  0
 33 34  1  0  0  0
 35 36  2  0  0  0
 35 37  1  0  0  0
 37 38  2  0  0  0
 37 39  1  0  0  0
 39 40  1  0  0  0
 39 72  1  0  0  0
 40 41  1  0  0  0
 40 73  1  0  0  0
 40 74  1  0  0  0
 41 42  1  0  0  0
 41 43  1  0  0  0
 41 44  1  0  0  0
M  END
> <chembl_id>
CHEMBL3649401

> <chembl_pref_name>
None

> <i_m_ct_stereo_status>
1

> <s_m_source_file>
sdf/inactives_sanitized.sdf

> <i_m_source_file_index>
570

> <i_lp_mmshare_version>
49012

> <i_f3d_flags>
0

> <s_epik_input>
RkMoRikoRilbQ0gyXVtOSF1DKD1PKUMoPU8pW0NASF0oW0NIMl1bQ0gyXVtDSDNdKVtOSF1DKD1PKVtDQEBIXTFbQ0gyXVtDQEBIXShTKD1PKSg9TyljMltjSF1bY0hdW2NIXVtjSF1jMkNsKVtDSDJdTjFDKD1PKUMzKFtDSDJdW0NIMl0zKWM0W2NIXVtjSF1jKENsKVtjSF1bY0hdNA==

> <s_epik_cmdline>
J2VwaWtfcHl0aG9uJywgJy1waHQnLCAnMC41JywgJy1waCcsICc3LjUnLCAnLW50JywgJy1tYScsICcyMDAnLCAnLWltYWUnLCAnPGluZmlsZS5tYWU+JywgJy1vbWFlJywgJzxvdXRmaWxlLm1hZT4n

> <r_lp_tautomer_probability>
1

> <r_epik_Ionization_Penalty>
  0.0000

> <r_epik_Ionization_Penalty_Charging>
  0.0000

> <r_epik_Ionization_Penalty_Neutral>
  0.0000

> <r_epik_State_Penalty>
 -0.0000

> <r_epik_Charging_Adjusted_Penalty>
0

> <i_epik_Tot_Q>
0

> <i_epik_Tot_abs_Q>
0

> <s_lp_Force_Field>
OPLS3e

> <r_lp_Energy>
53.105333

> <b_lp_Chiralities_Consistent>
1

> <s_lp_Variant>
sdf/inactives_sanitized.sdf:570-1

$$$$
sdf/inactives_sanitized.sdf:571
                    3D
 Schrodinger Suite 2020-1.
 85 90  0  0  1  0            999 V2000
   -9.0658    2.8842    1.8812 Cl  0  0  0  0  0  0
   -7.4799    2.3491    2.3026 C   0  0  0  0  0  0
   -6.6013    3.2246    2.9372 C   0  0  0  0  0  0
   -5.3182    2.7984    3.2671 C   0  0  0  0  0  0
   -4.9140    1.4912    2.9699 C   0  0  0  0  0  0
   -5.8054    0.6182    2.3376 C   0  0  0  0  0  0
   -7.0862    1.0471    2.0013 C   0  0  0  0  0  0
   -3.5029    0.9993    3.3076 C   0  0  0  0  0  0
   -2.6978    1.6464    4.4343 C   0  0  0  0  0  0
   -3.2829    0.2778    4.6376 C   0  0  0  0  0  0
   -2.5595    0.5293    2.1522 C   0  0  0  0  0  0
   -1.8787   -0.4866    2.3233 O   0  0  0  0  0  0
   -2.4644    1.2338    0.9878 N   0  0  0  0  0  0
   -3.2371    2.4415    0.6652 C   0  0  0  0  0  0
   -2.7738    2.8420   -0.7364 C   0  0  1  0  0  0
   -2.1194    1.6062   -1.3328 C   0  0  0  0  0  0
   -1.5836    0.8223   -0.1299 C   0  0  1  0  0  0
   -0.1005    1.1391    0.1695 C   0  0  0  0  0  0
    0.2580    2.2929    0.4119 O   0  0  0  0  0  0
    0.7501    0.1001    0.1124 N   0  0  0  0  0  0
    2.1809    0.1508    0.4428 C   0  0  1  0  0  0
    2.4742   -0.4507    1.8483 C   0  0  0  0  0  0
    1.8009    0.2847    3.0371 C   0  0  0  0  0  0
    2.3431    1.7199    3.2455 C   0  0  0  0  0  0
    1.5937    2.4464    4.3801 C   0  0  0  0  0  0
    1.6295    1.6418    5.6979 C   0  0  0  0  0  0
    1.1912    0.1731    5.5091 C   0  0  0  0  0  0
    1.9613   -0.5034    4.3569 C   0  0  0  0  0  0
    2.8726   -0.6154   -0.6835 C   0  0  0  0  0  0
    3.4452   -1.6980   -0.5224 O   0  0  0  0  0  0
    2.8754    0.0911   -2.1093 C   0  0  0  0  0  0
    2.4183    1.2243   -2.2702 O   0  0  0  0  0  0
    3.4143   -0.6847   -3.0676 N   0  0  0  0  0  0
    3.6350   -0.2527   -4.4434 C   0  0  0  0  0  0
    2.4427    0.0703   -5.3194 C   0  0  0  0  0  0
    3.2426   -1.1866   -5.5640 C   0  0  0  0  0  0
   -4.1849    3.5066   -1.8175 S   0  0  0  0  0  0
   -3.6114    4.1237   -3.0185 O   0  0  0  0  0  0
   -5.1888    2.4447   -1.9561 O   0  0  0  0  0  0
   -4.9215    4.8261   -0.8345 C   0  0  0  0  0  0
   -6.2240    4.6549   -0.3480 C   0  0  0  0  0  0
   -6.8316    5.6481    0.4181 C   0  0  0  0  0  0
   -6.1411    6.8205    0.7137 C   0  0  0  0  0  0
   -4.8438    7.0008    0.2381 C   0  0  0  0  0  0
   -4.2283    6.0141   -0.5358 C   0  0  0  0  0  0
   -2.6188    6.3159   -1.0942 Cl  0  0  0  0  0  0
   -6.9079    4.2348    3.1657 H   0  0  0  0  0  0
   -4.6434    3.4957    3.7398 H   0  0  0  0  0  0
   -5.5035   -0.3919    2.1017 H   0  0  0  0  0  0
   -7.7686    0.3703    1.5082 H   0  0  0  0  0  0
   -1.6154    1.7436    4.3430 H   0  0  0  0  0  0
   -3.1201    2.4712    5.0072 H   0  0  0  0  0  0
   -2.6062   -0.5741    4.7163 H   0  0  0  0  0  0
   -4.1354    0.1673    5.3086 H   0  0  0  0  0  0
   -4.2924    2.1815    0.5933 H   0  0  0  0  0  0
   -3.1065    3.2632    1.3704 H   0  0  0  0  0  0
   -2.0434    3.6479   -0.6753 H   0  0  0  0  0  0
   -2.8699    0.9872   -1.8267 H   0  0  0  0  0  0
   -1.3766    1.8200   -2.1040 H   0  0  0  0  0  0
   -1.6496   -0.2574   -0.2796 H   0  0  0  0  0  0
    0.3784   -0.8218   -0.0647 H   0  0  0  0  0  0
    2.5613    1.1740    0.4281 H   0  0  0  0  0  0
    2.1307   -1.4875    1.8600 H   0  0  0  0  0  0
    3.5521   -0.4836    2.0186 H   0  0  0  0  0  0
    0.7302    0.3602    2.8428 H   0  0  0  0  0  0
    3.4153    1.6891    3.4460 H   0  0  0  0  0  0
    2.2517    2.3021    2.3296 H   0  0  0  0  0  0
    2.0267    3.4350    4.5371 H   0  0  0  0  0  0
    0.5589    2.6139    4.0797 H   0  0  0  0  0  0
    2.6440    1.6616    6.0992 H   0  0  0  0  0  0
    0.9997    2.1245    6.4460 H   0  0  0  0  0  0
    1.3434   -0.3822    6.4353 H   0  0  0  0  0  0
    0.1205    0.1344    5.3030 H   0  0  0  0  0  0
    3.0181   -0.6170    4.6042 H   0  0  0  0  0  0
    1.5956   -1.5228    4.2254 H   0  0  0  0  0  0
    3.8101   -1.5744   -2.7999 H   0  0  0  0  0  0
    4.5304    0.3575   -4.5688 H   0  0  0  0  0  0
    1.4410   -0.0115   -4.8958 H   0  0  0  0  0  0
    2.5291    0.9019   -6.0190 H   0  0  0  0  0  0
    2.8028   -2.1525   -5.3132 H   0  0  0  0  0  0
    3.8910   -1.2414   -6.4386 H   0  0  0  0  0  0
   -6.7787    3.7522   -0.5573 H   0  0  0  0  0  0
   -7.8372    5.5060    0.7860 H   0  0  0  0  0  0
   -6.6107    7.5891    1.3096 H   0  0  0  0  0  0
   -4.3150    7.9138    0.4708 H   0  0  0  0  0  0
  1  2  1  0  0  0
  2  3  2  0  0  0
  2  7  1  0  0  0
  3  4  1  0  0  0
  3 47  1  0  0  0
  4  5  2  0  0  0
  4 48  1  0  0  0
  5  6  1  0  0  0
  5  8  1  0  0  0
  6  7  2  0  0  0
  6 49  1  0  0  0
  7 50  1  0  0  0
  8  9  1  0  0  0
  8 10  1  0  0  0
  8 11  1  0  0  0
  9 10  1  0  0  0
  9 51  1  0  0  0
  9 52  1  0  0  0
 10 53  1  0  0  0
 10 54  1  0  0  0
 11 12  2  0  0  0
 11 13  1  0  0  0
 13 14  1  0  0  0
 13 17  1  0  0  0
 14 15  1  0  0  0
 14 55  1  0  0  0
 14 56  1  0  0  0
 15 16  1  0  0  0
 15 37  1  0  0  0
 15 57  1  0  0  0
 16 17  1  0  0  0
 16 58  1  0  0  0
 16 59  1  0  0  0
 17 18  1  0  0  0
 17 60  1  0  0  0
 18 19  2  0  0  0
 18 20  1  0  0  0
 20 21  1  0  0  0
 20 61  1  0  0  0
 21 22  1  0  0  0
 21 29  1  0  0  0
 21 62  1  0  0  0
 22 23  1  0  0  0
 22 63  1  0  0  0
 22 64  1  0  0  0
 23 24  1  0  0  0
 23 28  1  0  0  0
 23 65  1  0  0  0
 24 25  1  0  0  0
 24 66  1  0  0  0
 24 67  1  0  0  0
 25 26  1  0  0  0
 25 68  1  0  0  0
 25 69  1  0  0  0
 26 27  1  0  0  0
 26 70  1  0  0  0
 26 71  1  0  0  0
 27 28  1  0  0  0
 27 72  1  0  0  0
 27 73  1  0  0  0
 28 74  1  0  0  0
 28 75  1  0  0  0
 29 30  2  0  0  0
 29 31  1  0  0  0
 31 32  2  0  0  0
 31 33  1  0  0  0
 33 34  1  0  0  0
 33 76  1  0  0  0
 34 35  1  0  0  0
 34 36  1  0  0  0
 34 77  1  0  0  0
 35 36  1  0  0  0
 35 78  1  0  0  0
 35 79  1  0  0  0
 36 80  1  0  0  0
 36 81  1  0  0  0
 37 38  2  0  0  0
 37 39  2  0  0  0
 37 40  1  0  0  0
 40 41  2  0  0  0
 40 45  1  0  0  0
 41 42  1  0  0  0
 41 82  1  0  0  0
 42 43  2  0  0  0
 42 83  1  0  0  0
 43 44  1  0  0  0
 43 84  1  0  0  0
 44 45  2  0  0  0
 44 85  1  0  0  0
 45 46  1  0  0  0
M  END
> <chembl_id>
CHEMBL3649391

> <chembl_pref_name>
None

> <i_m_ct_stereo_status>
1

> <s_m_source_file>
sdf/inactives_sanitized.sdf

> <i_m_source_file_index>
571

> <i_lp_mmshare_version>
49012

> <i_f3d_flags>
0

> <s_epik_input>
Q2xjMVtjSF1bY0hdYyhbY0hdW2NIXTEpQzIoW0NIMl1bQ0gyXTIpQyg9TylOM1tDSDJdW0NASF0oUyg9TykoPU8pYzRbY0hdW2NIXVtjSF1bY0hdYzRDbClbQ0gyXVtDQEhdM0MoPU8pW05IXVtDQEhdKEMoPU8pQyg9TylbTkhdW0NIXTVbQ0gyXVtDSDJdNSlbQ0gyXVtDSF02W0NIMl1bQ0gyXVtDSDJdW0NIMl1bQ0gyXTY=

> <s_epik_cmdline>
J2VwaWtfcHl0aG9uJywgJy1waHQnLCAnMC41JywgJy1waCcsICc3LjUnLCAnLW50JywgJy1tYScsICcyMDAnLCAnLWltYWUnLCAnPGluZmlsZS5tYWU+JywgJy1vbWFlJywgJzxvdXRmaWxlLm1hZT4n

> <r_lp_tautomer_probability>
1

> <r_epik_Ionization_Penalty>
  0.0000

> <r_epik_Ionization_Penalty_Charging>
  0.0000

> <r_epik_Ionization_Penalty_Neutral>
  0.0000

> <r_epik_State_Penalty>
 -0.0000

> <r_epik_Charging_Adjusted_Penalty>
0

> <i_epik_Tot_Q>
0

> <i_epik_Tot_abs_Q>
0

> <s_lp_Force_Field>
OPLS3e

> <r_lp_Energy>
57.063504

> <b_lp_Chiralities_Consistent>
1

> <s_lp_Variant>
sdf/inactives_sanitized.sdf:571-1

$$$$
sdf/inactives_sanitized.sdf:572
                    3D
 Schrodinger Suite 2020-1.
 49 50  0  0  1  0            999 V2000
    1.1363   -0.5475    3.4214 C   0  0  0  0  0  0
    1.5063    0.1517    4.5712 C   0  0  0  0  0  0
    0.8995    1.3718    4.8712 C   0  0  0  0  0  0
   -0.0771    1.8917    4.0221 C   0  0  0  0  0  0
   -0.4449    1.1946    2.8710 C   0  0  0  0  0  0
    0.1640   -0.0271    2.5600 C   0  0  0  0  0  0
   -0.2163   -0.7850    1.2879 C   0  0  0  0  0  0
    0.0025    0.0273   -0.0172 C   0  0  2  0  0  0
   -0.5517   -0.6875   -1.1696 N   0  0  0  0  0  0
    1.4963    0.3521   -0.2269 C   0  0  0  0  0  0
    2.2437   -0.4899   -0.7251 O   0  0  0  0  0  0
    1.9000    1.5567    0.2054 N   0  0  0  0  0  0
    3.2938    1.9835    0.2377 C   0  0  0  0  0  0
    4.0799    1.2528    1.2472 C   0  0  0  0  0  0
    4.6957    0.6790    2.0412 N   0  0  0  0  0  0
   -0.8001   -0.1440   -2.3761 C   0  0  0  0  0  0
   -0.6043    1.0482   -2.6199 O   0  0  0  0  0  0
   -1.3633   -1.0930   -3.4593 C   0  0  0  0  0  0
    2.7181   -0.4905    5.6186 Cl  0  0  0  0  0  0
   -1.0743   -0.5907   -4.8996 C   0  0  0  0  0  0
   -1.5269   -1.5169   -6.0465 C   0  0  0  0  0  0
   -2.8453   -1.4574   -3.1644 C   0  0  0  0  0  0
   -3.0521   -1.5547   -6.2574 C   0  0  0  0  0  0
   -3.3502   -2.7120   -3.9051 C   0  0  0  0  0  0
   -3.8472   -2.5156   -5.3513 C   0  0  0  0  0  0
    1.6170   -1.4879    3.1929 H   0  0  0  0  0  0
    1.1831    1.9155    5.7604 H   0  0  0  0  0  0
   -0.5479    2.8355    4.2550 H   0  0  0  0  0  0
   -1.2029    1.6086    2.2222 H   0  0  0  0  0  0
    0.3255   -1.7323    1.2359 H   0  0  0  0  0  0
   -1.2655   -1.0709    1.3804 H   0  0  0  0  0  0
   -0.5470    0.9676    0.0609 H   0  0  0  0  0  0
   -0.7297   -1.6712   -1.0286 H   0  0  0  0  0  0
    1.2247    2.1760    0.6294 H   0  0  0  0  0  0
    3.7655    1.8618   -0.7387 H   0  0  0  0  0  0
    3.3335    3.0446    0.4827 H   0  0  0  0  0  0
   -0.7780   -2.0061   -3.3312 H   0  0  0  0  0  0
   -1.5465    0.3815   -5.0540 H   0  0  0  0  0  0
    0.0010   -0.4383   -5.0116 H   0  0  0  0  0  0
   -1.0695   -1.1525   -6.9676 H   0  0  0  0  0  0
   -1.1328   -2.5243   -5.9055 H   0  0  0  0  0  0
   -2.9886   -1.6228   -2.0945 H   0  0  0  0  0  0
   -3.4912   -0.6149   -3.4179 H   0  0  0  0  0  0
   -3.4520   -0.5452   -6.1487 H   0  0  0  0  0  0
   -3.2571   -1.8244   -7.2945 H   0  0  0  0  0  0
   -2.5665   -3.4708   -3.8946 H   0  0  0  0  0  0
   -4.1680   -3.1504   -3.3311 H   0  0  0  0  0  0
   -4.8836   -2.1754   -5.3249 H   0  0  0  0  0  0
   -3.8841   -3.4965   -5.8279 H   0  0  0  0  0  0
  1  6  2  0  0  0
  1  2  1  0  0  0
  1 26  1  0  0  0
  2 19  1  0  0  0
  2  3  2  0  0  0
  3  4  1  0  0  0
  3 27  1  0  0  0
  4  5  2  0  0  0
  4 28  1  0  0  0
  5  6  1  0  0  0
  5 29  1  0  0  0
  6  7  1  0  0  0
  7  8  1  0  0  0
  7 30  1  0  0  0
  7 31  1  0  0  0
  8  9  1  0  0  0
  8 10  1  0  0  0
  8 32  1  0  0  0
  9 16  1  0  0  0
  9 33  1  0  0  0
 10 11  2  0  0  0
 10 12  1  0  0  0
 12 13  1  0  0  0
 12 34  1  0  0  0
 13 14  1  0  0  0
 13 35  1  0  0  0
 13 36  1  0  0  0
 14 15  3  0  0  0
 16 17  2  0  0  0
 16 18  1  0  0  0
 18 20  1  0  0  0
 18 22  1  0  0  0
 18 37  1  0  0  0
 20 21  1  0  0  0
 20 38  1  0  0  0
 20 39  1  0  0  0
 21 23  1  0  0  0
 21 40  1  0  0  0
 21 41  1  0  0  0
 22 24  1  0  0  0
 22 42  1  0  0  0
 22 43  1  0  0  0
 23 25  1  0  0  0
 23 44  1  0  0  0
 23 45  1  0  0  0
 24 25  1  0  0  0
 24 46  1  0  0  0
 24 47  1  0  0  0
 25 48  1  0  0  0
 25 49  1  0  0  0
M  END
> <chembl_id>
CHEMBL550247

> <chembl_pref_name>
None

> <i_m_ct_stereo_status>
1

> <s_m_source_file>
sdf/inactives_sanitized.sdf

> <i_m_source_file_index>
572

> <i_lp_mmshare_version>
49012

> <i_f3d_flags>
0

> <s_epik_input>
W2NIXTFbY0hdW2NIXWMoW2NIXWMxQ2wpW0NIMl1bQ0BASF0oQyg9TylbTkhdW0NIMl1DI04pW05IXUMoPU8pW0NIXTJbQ0gyXVtDSDJdW0NIMl1bQ0gyXVtDSDJdW0NIMl0y

> <s_epik_cmdline>
J2VwaWtfcHl0aG9uJywgJy1waHQnLCAnMC41JywgJy1waCcsICc3LjUnLCAnLW50JywgJy1tYScsICcyMDAnLCAnLWltYWUnLCAnPGluZmlsZS5tYWU+JywgJy1vbWFlJywgJzxvdXRmaWxlLm1hZT4n

> <r_lp_tautomer_probability>
1

> <r_epik_Ionization_Penalty>
  0.0000

> <r_epik_Ionization_Penalty_Charging>
  0.0000

> <r_epik_Ionization_Penalty_Neutral>
  0.0000

> <r_epik_State_Penalty>
 -0.0000

> <r_epik_Charging_Adjusted_Penalty>
0

> <i_epik_Tot_Q>
0

> <i_epik_Tot_abs_Q>
0

> <s_lp_Force_Field>
OPLS3e

> <r_lp_Energy>
20.948773

> <b_lp_Chiralities_Consistent>
1

> <s_lp_Variant>
sdf/inactives_sanitized.sdf:572-1

$$$$
sdf/inactives_sanitized.sdf:573
                    3D
 Schrodinger Suite 2020-1.
 57 60  0  0  1  0            999 V2000
    3.4952    1.2170    0.8351 C   0  0  0  0  0  0
    4.0389    1.8621    2.0922 C   0  0  0  0  0  0
    4.3423    0.4147    1.8065 C   0  0  0  0  0  0
   -2.4349   -3.1653    1.6041 S   0  0  0  0  0  0
   -3.4908   -2.3127    1.0454 O   0  0  0  0  0  0
   -2.4404   -4.6076    1.3341 O   0  0  0  0  0  0
   -0.7389   -2.4702    1.0987 C   0  0  2  0  0  0
   -0.5949   -0.9780    1.4706 C   0  0  0  0  0  0
   -0.0144   -0.2667    0.2269 C   0  0  2  0  0  0
   -0.4999   -1.1312   -0.9800 C   0  0  1  0  0  0
   -0.5229   -2.5759   -0.4243 C   0  0  0  0  0  0
    1.5339   -0.2131    0.3195 C   0  0  0  0  0  0
   -1.9194   -0.7285   -1.4878 C   0  0  0  0  0  0
   -2.6052    0.0338   -0.8009 O   0  0  0  0  0  0
   -2.3753   -1.2206   -2.6745 N   0  0  0  0  0  0
    2.0626    0.9383    0.7698 N   0  0  0  0  0  0
    2.2328   -1.1424   -0.0889 O   0  0  0  0  0  0
    4.1150    1.5634   -0.4566 C   0  0  0  0  0  0
    4.6011    1.8352   -1.4709 N   0  0  0  0  0  0
   -2.4578   -2.9616    3.3842 C   0  0  0  0  0  0
   -1.8514   -3.9241    4.1951 C   0  0  0  0  0  0
   -1.8636   -3.7698    5.5789 C   0  0  0  0  0  0
   -2.4803   -2.6553    6.1439 C   0  0  0  0  0  0
   -3.0837   -1.6916    5.3381 C   0  0  0  0  0  0
   -3.0727   -1.8436    3.9541 C   0  0  0  0  0  0
   -1.5830   -2.0819   -3.5749 C   0  0  0  0  0  0
   -1.3333   -1.2989   -4.8815 C   0  0  0  0  0  0
   -2.6785   -0.8865   -5.5020 N   0  3  0  0  0  0
   -3.5163   -0.0641   -4.5077 C   0  0  0  0  0  0
   -3.7095   -0.8522   -3.1923 C   0  0  0  0  0  0
    4.8433    2.5927    2.0006 H   0  0  0  0  0  0
    3.3547    2.0971    2.9081 H   0  0  0  0  0  0
    5.3574    0.1410    1.5172 H   0  0  0  0  0  0
    3.8662   -0.3488    2.4228 H   0  0  0  0  0  0
   -0.0038   -3.0810    1.6245 H   0  0  0  0  0  0
   -1.5664   -0.5296    1.6812 H   0  0  0  0  0  0
    0.0061   -0.8361    2.3714 H   0  0  0  0  0  0
   -0.3396    0.7707    0.1156 H   0  0  0  0  0  0
    0.1661   -0.9925   -1.8338 H   0  0  0  0  0  0
   -1.2551   -3.2267   -0.9060 H   0  0  0  0  0  0
    0.4421   -3.0418   -0.6276 H   0  0  0  0  0  0
    1.4451    1.7154    0.9544 H   0  0  0  0  0  0
   -1.3720   -4.7879    3.7582 H   0  0  0  0  0  0
   -1.3977   -4.5114    6.2112 H   0  0  0  0  0  0
   -2.4901   -2.5373    7.2175 H   0  0  0  0  0  0
   -3.5584   -0.8304    5.7849 H   0  0  0  0  0  0
   -3.5395   -1.0936    3.3324 H   0  0  0  0  0  0
   -0.6474   -2.4349   -3.1446 H   0  0  0  0  0  0
   -2.1547   -2.9866   -3.7866 H   0  0  0  0  0  0
   -0.7486   -0.3895   -4.7317 H   0  0  0  0  0  0
   -0.8409   -1.9112   -5.6374 H   0  0  0  0  0  0
   -2.5185   -0.3485   -6.3421 H   0  0  0  0  0  0
   -3.0083    0.8907   -4.3613 H   0  0  0  0  0  0
   -4.4642    0.1197   -5.0142 H   0  0  0  0  0  0
   -4.2893   -1.7578   -3.3762 H   0  0  0  0  0  0
   -4.2921   -0.2653   -2.4804 H   0  0  0  0  0  0
   -3.1926   -1.7148   -5.7672 H   0  0  0  0  0  0
  1  2  1  0  0  0
  1  3  1  0  0  0
  1 16  1  0  0  0
  1 18  1  0  0  0
  2  3  1  0  0  0
  2 31  1  0  0  0
  2 32  1  0  0  0
  3 33  1  0  0  0
  3 34  1  0  0  0
  4  5  2  0  0  0
  4  6  2  0  0  0
  4  7  1  0  0  0
  4 20  1  0  0  0
  7  8  1  0  0  0
  7 11  1  0  0  0
  7 35  1  0  0  0
  8  9  1  0  0  0
  8 36  1  0  0  0
  8 37  1  0  0  0
  9 10  1  0  0  0
  9 12  1  0  0  0
  9 38  1  0  0  0
 10 11  1  0  0  0
 10 13  1  0  0  0
 10 39  1  0  0  0
 11 40  1  0  0  0
 11 41  1  0  0  0
 12 16  1  0  0  0
 12 17  2  0  0  0
 13 14  2  0  0  0
 13 15  1  0  0  0
 15 26  1  0  0  0
 15 30  1  0  0  0
 16 42  1  0  0  0
 18 19  3  0  0  0
 20 21  2  0  0  0
 20 25  1  0  0  0
 21 22  1  0  0  0
 21 43  1  0  0  0
 22 23  2  0  0  0
 22 44  1  0  0  0
 23 24  1  0  0  0
 23 45  1  0  0  0
 24 25  2  0  0  0
 24 46  1  0  0  0
 25 47  1  0  0  0
 26 27  1  0  0  0
 26 48  1  0  0  0
 26 49  1  0  0  0
 27 28  1  0  0  0
 27 50  1  0  0  0
 27 51  1  0  0  0
 28 29  1  0  0  0
 28 52  1  0  0  0
 28 57  1  0  0  0
 29 30  1  0  0  0
 29 53  1  0  0  0
 29 54  1  0  0  0
 30 55  1  0  0  0
 30 56  1  0  0  0
M  CHG  1  28   1
M  END
> <chembl_id>
CHEMBL3093828

> <chembl_pref_name>
None

> <i_m_ct_stereo_status>
1

> <s_m_source_file>
sdf/inactives_sanitized.sdf

> <i_m_source_file_index>
573

> <i_lp_mmshare_version>
49012

> <i_f3d_flags>
0

> <s_epik_input>
W0NIMl0xW0NIMl1bTkhdW0NIMl1bQ0gyXU4xQyg9TylbQ0BIXShbQ0gyXTIpW0NASF0oQyg9TylbTkhdQzMoQyNOKVtDSDJdW0NIMl0zKVtDSDJdW0NASF0yUyg9TykoPU8pYzRbY0hdW2NIXVtjSF1bY0hdW2NIXTQ=

> <s_epik_cmdline>
J2VwaWtfcHl0aG9uJywgJy1waHQnLCAnMC41JywgJy1waCcsICc3LjUnLCAnLW50JywgJy1tYScsICcyMDAnLCAnLWltYWUnLCAnPGluZmlsZS5tYWU+JywgJy1vbWFlJywgJzxvdXRmaWxlLm1hZT4n

> <r_epik_Ionization_Penalty>
  0.0537

> <r_epik_Ionization_Penalty_Charging>
  0.0537

> <r_epik_Ionization_Penalty_Neutral>
  0.0000

> <r_epik_State_Penalty>
  0.0461

> <r_epik_Charging_Adjusted_Penalty>
0.0997680583921066

> <i_epik_Tot_Q>
1

> <i_epik_Tot_abs_Q>
1

> <s_lp_Force_Field>
OPLS3e

> <r_lp_Energy>
29.515875

> <b_lp_Chiralities_Consistent>
1

> <s_lp_Variant>
sdf/inactives_sanitized.sdf:573-1

$$$$
sdf/inactives_sanitized.sdf:574
                    3D
 Schrodinger Suite 2020-1.
 55 58  0  0  1  0            999 V2000
   -3.8575    1.0149    0.2392 N   0  0  0  0  0  0
   -4.9719    0.2526    0.0723 C   0  0  0  0  0  0
   -5.0426   -1.0829   -0.1648 N   0  0  0  0  0  0
   -3.8615   -1.7481   -0.2499 C   0  0  0  0  0  0
   -2.7145    0.3161    0.1472 C   0  0  0  0  0  0
   -2.6350   -1.0799   -0.0998 C   0  0  0  0  0  0
   -1.2503   -1.4181   -0.1296 C   0  0  0  0  0  0
   -0.5267   -0.2550    0.0884 C   0  0  0  0  0  0
   -1.4190    0.7974    0.2698 N   0  0  0  0  0  0
   -6.2418    0.9540    0.1567 C   0  0  0  0  0  0
   -7.2533    1.5128    0.2237 N   0  0  0  0  0  0
    0.9766   -0.0583    0.1375 C   0  0  0  0  0  0
    1.3697    0.7216   -0.9879 O   0  0  0  0  0  0
    2.6503    1.2339   -1.0525 C   0  0  0  0  0  0
   -1.0642    2.2014    0.4959 C   0  0  0  0  0  0
   -1.0975    2.9956   -0.8279 C   0  0  0  0  0  0
   -0.7311    4.4918   -0.6860 C   0  0  0  0  0  0
   -1.0086    5.2557   -2.0024 C   0  0  0  0  0  0
   -0.7346    6.7657   -1.8496 C   0  0  0  0  0  0
    0.7072    7.0323   -1.3661 C   0  0  0  0  0  0
    1.0659    6.2144   -0.1068 C   0  0  0  0  0  0
    0.7513    4.7164   -0.2945 C   0  0  0  0  0  0
    3.6771    0.9342   -0.1407 C   0  0  0  0  0  0
    4.9582    1.5006   -0.2730 C   0  0  0  0  0  0
    5.1901    2.3799   -1.3412 C   0  0  0  0  0  0
    4.1801    2.6777   -2.2530 C   0  0  0  0  0  0
    2.9205    2.1030   -2.1094 C   0  0  0  0  0  0
    6.0771    1.1885    0.7003 C   0  0  0  0  0  0
    5.8549    0.2365    1.6136 N   0  0  0  0  0  0
    7.1529    1.7844    0.6565 O   0  0  0  0  0  0
   -3.9075   -2.8100   -0.4413 H   0  0  0  0  0  0
   -0.8166   -2.3927   -0.2989 H   0  0  0  0  0  0
    1.2646    0.4124    1.0789 H   0  0  0  0  0  0
    1.4730   -1.0285    0.0820 H   0  0  0  0  0  0
   -1.7647    2.6270    1.2161 H   0  0  0  0  0  0
   -0.0859    2.2535    0.9702 H   0  0  0  0  0  0
   -0.4330    2.5306   -1.5578 H   0  0  0  0  0  0
   -2.1012    2.9189   -1.2501 H   0  0  0  0  0  0
   -1.3587    4.9330    0.0911 H   0  0  0  0  0  0
   -0.4120    4.8353   -2.8142 H   0  0  0  0  0  0
   -2.0436    5.1001   -2.3108 H   0  0  0  0  0  0
   -0.9086    7.2742   -2.7987 H   0  0  0  0  0  0
   -1.4430    7.1947   -1.1391 H   0  0  0  0  0  0
    1.4044    6.7794   -2.1664 H   0  0  0  0  0  0
    0.8443    8.0964   -1.1705 H   0  0  0  0  0  0
    2.1217    6.3460    0.1334 H   0  0  0  0  0  0
    0.5083    6.5993    0.7484 H   0  0  0  0  0  0
    0.9954    4.1781    0.6208 H   0  0  0  0  0  0
    1.4060    4.2823   -1.0513 H   0  0  0  0  0  0
    3.4779    0.2537    0.6727 H   0  0  0  0  0  0
    6.1584    2.8403   -1.4793 H   0  0  0  0  0  0
    4.3746    3.3549   -3.0717 H   0  0  0  0  0  0
    2.1429    2.3429   -2.8201 H   0  0  0  0  0  0
    6.5754   -0.0019    2.2794 H   0  0  0  0  0  0
    4.9729   -0.2527    1.6383 H   0  0  0  0  0  0
  1  2  2  0  0  0
  1  5  1  0  0  0
  2 10  1  0  0  0
  2  3  1  0  0  0
  3  4  2  0  0  0
  4  6  1  0  0  0
  4 31  1  0  0  0
  5  9  1  0  0  0
  5  6  2  0  0  0
  6  7  1  0  0  0
  7  8  2  0  0  0
  7 32  1  0  0  0
  8  9  1  0  0  0
  8 12  1  0  0  0
  9 15  1  0  0  0
 10 11  3  0  0  0
 12 13  1  0  0  0
 12 33  1  0  0  0
 12 34  1  0  0  0
 13 14  1  0  0  0
 14 23  2  0  0  0
 14 27  1  0  0  0
 15 16  1  0  0  0
 15 35  1  0  0  0
 15 36  1  0  0  0
 16 17  1  0  0  0
 16 37  1  0  0  0
 16 38  1  0  0  0
 17 18  1  0  0  0
 17 22  1  0  0  0
 17 39  1  0  0  0
 18 19  1  0  0  0
 18 40  1  0  0  0
 18 41  1  0  0  0
 19 20  1  0  0  0
 19 42  1  0  0  0
 19 43  1  0  0  0
 20 21  1  0  0  0
 20 44  1  0  0  0
 20 45  1  0  0  0
 21 22  1  0  0  0
 21 46  1  0  0  0
 21 47  1  0  0  0
 22 48  1  0  0  0
 22 49  1  0  0  0
 23 24  1  0  0  0
 23 50  1  0  0  0
 24 25  2  0  0  0
 24 28  1  0  0  0
 25 26  1  0  0  0
 25 51  1  0  0  0
 26 27  2  0  0  0
 26 52  1  0  0  0
 27 53  1  0  0  0
 28 29  1  0  0  0
 28 30  2  0  0  0
 29 54  1  0  0  0
 29 55  1  0  0  0
M  END
> <chembl_id>
CHEMBL482269

> <chembl_pref_name>
None

> <s_m_source_file>
sdf/inactives_sanitized.sdf

> <i_m_source_file_index>
574

> <i_lp_mmshare_version>
49012

> <i_m_ct_stereo_status>
1

> <i_f3d_flags>
0

> <s_epik_input>
W2NIXTFbY0hdW2NIXWMoQyg9TylbTkgyXSlbY0hdYzFPW0NIMl1jKFtjSF1jKGMyMylbY0hdbmMobjIpQyNOKW4zW0NIMl1bQ0gyXVtDSF00W0NIMl1bQ0gyXVtDSDJdW0NIMl1bQ0gyXTQ=

> <s_epik_cmdline>
J2VwaWtfcHl0aG9uJywgJy1waHQnLCAnMC41JywgJy1waCcsICc3LjUnLCAnLW50JywgJy1tYScsICcyMDAnLCAnLWltYWUnLCAnPGluZmlsZS5tYWU+JywgJy1vbWFlJywgJzxvdXRmaWxlLm1hZT4n

> <r_lp_tautomer_probability>
1

> <r_epik_Ionization_Penalty>
  0.0000

> <r_epik_Ionization_Penalty_Charging>
  0.0000

> <r_epik_Ionization_Penalty_Neutral>
  0.0000

> <r_epik_State_Penalty>
 -0.0000

> <r_epik_Charging_Adjusted_Penalty>
0

> <i_epik_Tot_Q>
0

> <i_epik_Tot_abs_Q>
0

> <s_lp_Force_Field>
OPLS3e

> <r_lp_Energy>
37.148241

> <b_lp_Chiralities_Consistent>
1

> <s_lp_Variant>
sdf/inactives_sanitized.sdf:574-1

$$$$
sdf/inactives_sanitized.sdf:575
                    3D
 Schrodinger Suite 2020-1.
 54 57  0  0  1  0            999 V2000
   -3.3147    1.9197    0.0991 N   0  0  0  0  0  0
   -4.5603    1.3737    0.0637 C   0  0  0  0  0  0
   -4.8949    0.0578    0.0293 N   0  0  0  0  0  0
   -3.8668   -0.8303    0.0284 C   0  0  0  0  0  0
   -2.3313    1.0054    0.0980 C   0  0  0  0  0  0
   -2.5302   -0.3991    0.0612 C   0  0  0  0  0  0
   -1.2377   -0.9998    0.0646 C   0  0  0  0  0  0
   -0.2923    0.0198    0.0938 C   0  0  0  0  0  0
   -0.9639    1.2376    0.1312 N   0  0  0  0  0  0
   -5.6674    2.3150    0.0632 C   0  0  0  0  0  0
   -6.5491    3.0653    0.0627 N   0  0  0  0  0  0
    1.2308   -0.0481    0.0884 C   0  0  0  0  0  0
    1.7853   -1.4653    0.0158 C   0  0  0  0  0  0
    1.9428   -2.0919   -1.2217 C   0  0  0  0  0  0
    2.4413   -3.3902   -1.2843 C   0  0  0  0  0  0
    2.7874   -4.0751   -0.1186 C   0  0  0  0  0  0
    2.6278   -3.4393    1.1232 C   0  0  0  0  0  0
    2.1288   -2.1414    1.1877 C   0  0  0  0  0  0
   -0.3420    2.5638    0.1443 C   0  0  0  0  0  0
   -0.2067    3.1161   -1.2902 C   0  0  0  0  0  0
    0.3453    4.5588   -1.3667 C   0  0  0  0  0  0
    0.2408    5.1186   -2.8050 C   0  0  0  0  0  0
    0.6980    6.5899   -2.8729 C   0  0  0  0  0  0
    2.1329    6.7621   -2.3303 C   0  0  0  0  0  0
    2.3161    6.1261   -0.9350 C   0  0  0  0  0  0
    1.8198    4.6659   -0.9045 C   0  0  0  0  0  0
    3.2722   -5.3591   -0.2788 O   0  0  0  0  0  0
    3.6341   -6.1132    0.8733 C   0  0  0  0  0  0
   -4.1223   -1.8793   -0.0020 H   0  0  0  0  0  0
   -1.0085   -2.0552    0.0380 H   0  0  0  0  0  0
    1.6269    0.5181   -0.7561 H   0  0  0  0  0  0
    1.6315    0.4332    0.9817 H   0  0  0  0  0  0
    1.6763   -1.5768   -2.1333 H   0  0  0  0  0  0
    2.5588   -3.8693   -2.2455 H   0  0  0  0  0  0
    2.8841   -3.9355    2.0469 H   0  0  0  0  0  0
    2.0075   -1.6645    2.1496 H   0  0  0  0  0  0
   -0.9558    3.2289    0.7539 H   0  0  0  0  0  0
    0.6216    2.5076    0.6483 H   0  0  0  0  0  0
    0.4256    2.4519   -1.8820 H   0  0  0  0  0  0
   -1.1897    3.0937   -1.7644 H   0  0  0  0  0  0
   -0.2599    5.1979   -0.7204 H   0  0  0  0  0  0
    0.8202    4.5007   -3.4932 H   0  0  0  0  0  0
   -0.7876    5.0387   -3.1604 H   0  0  0  0  0  0
    0.6438    6.9503   -3.9009 H   0  0  0  0  0  0
    0.0126    7.2122   -2.2954 H   0  0  0  0  0  0
    2.8353    6.3030   -3.0278 H   0  0  0  0  0  0
    2.3917    7.8210   -2.2939 H   0  0  0  0  0  0
    3.3661    6.1683   -0.6430 H   0  0  0  0  0  0
    1.7702    6.7115   -0.1936 H   0  0  0  0  0  0
    1.9356    4.2664    0.1027 H   0  0  0  0  0  0
    2.4534    4.0317   -1.5272 H   0  0  0  0  0  0
    3.9947   -7.0939    0.5635 H   0  0  0  0  0  0
    2.7794   -6.2692    1.5335 H   0  0  0  0  0  0
    4.4357   -5.6293    1.4336 H   0  0  0  0  0  0
  1  2  2  0  0  0
  1  5  1  0  0  0
  2  3  1  0  0  0
  2 10  1  0  0  0
  3  4  2  0  0  0
  4  6  1  0  0  0
  4 29  1  0  0  0
  5  9  1  0  0  0
  5  6  2  0  0  0
  6  7  1  0  0  0
  7  8  2  0  0  0
  7 30  1  0  0  0
  8  9  1  0  0  0
  8 12  1  0  0  0
  9 19  1  0  0  0
 10 11  3  0  0  0
 12 13  1  0  0  0
 12 31  1  0  0  0
 12 32  1  0  0  0
 13 14  2  0  0  0
 13 18  1  0  0  0
 14 15  1  0  0  0
 14 33  1  0  0  0
 15 16  2  0  0  0
 15 34  1  0  0  0
 16 17  1  0  0  0
 16 27  1  0  0  0
 17 18  2  0  0  0
 17 35  1  0  0  0
 18 36  1  0  0  0
 19 20  1  0  0  0
 19 37  1  0  0  0
 19 38  1  0  0  0
 20 21  1  0  0  0
 20 39  1  0  0  0
 20 40  1  0  0  0
 21 22  1  0  0  0
 21 26  1  0  0  0
 21 41  1  0  0  0
 22 23  1  0  0  0
 22 42  1  0  0  0
 22 43  1  0  0  0
 23 24  1  0  0  0
 23 44  1  0  0  0
 23 45  1  0  0  0
 24 25  1  0  0  0
 24 46  1  0  0  0
 24 47  1  0  0  0
 25 26  1  0  0  0
 25 48  1  0  0  0
 25 49  1  0  0  0
 26 50  1  0  0  0
 26 51  1  0  0  0
 27 28  1  0  0  0
 28 52  1  0  0  0
 28 53  1  0  0  0
 28 54  1  0  0  0
M  END
> <chembl_id>
CHEMBL493473

> <chembl_pref_name>
None

> <s_m_source_file>
sdf/inactives_sanitized.sdf

> <i_m_source_file_index>
575

> <i_lp_mmshare_version>
49012

> <i_m_ct_stereo_status>
1

> <i_f3d_flags>
0

> <s_epik_input>
TiNDYyhuMSluW2NIXWMoYzEyKVtjSF1jKFtDSDJdYzNbY0hdW2NIXWMoW2NIXVtjSF0zKU9bQ0gzXSluMltDSDJdW0NIMl1bQ0hdNFtDSDJdW0NIMl1bQ0gyXVtDSDJdW0NIMl00

> <s_epik_cmdline>
J2VwaWtfcHl0aG9uJywgJy1waHQnLCAnMC41JywgJy1waCcsICc3LjUnLCAnLW50JywgJy1tYScsICcyMDAnLCAnLWltYWUnLCAnPGluZmlsZS5tYWU+JywgJy1vbWFlJywgJzxvdXRmaWxlLm1hZT4n

> <r_lp_tautomer_probability>
1

> <r_epik_Ionization_Penalty>
  0.0000

> <r_epik_Ionization_Penalty_Charging>
  0.0000

> <r_epik_Ionization_Penalty_Neutral>
  0.0000

> <r_epik_State_Penalty>
 -0.0000

> <r_epik_Charging_Adjusted_Penalty>
0

> <i_epik_Tot_Q>
0

> <i_epik_Tot_abs_Q>
0

> <s_lp_Force_Field>
OPLS3e

> <r_lp_Energy>
41.204018

> <b_lp_Chiralities_Consistent>
1

> <s_lp_Variant>
sdf/inactives_sanitized.sdf:575-1

$$$$
sdf/inactives_sanitized.sdf:576
                    3D
 Schrodinger Suite 2020-1.
 74 78  0  0  1  0            999 V2000
    0.1426    0.4570    3.3360 C   0  0  0  0  0  0
   -0.4151   -0.6505    2.4190 C   0  0  0  0  0  0
   -0.2434   -0.4199    0.8917 C   0  0  2  0  0  0
    1.1834   -0.3466    0.5273 N   0  0  0  0  0  0
    1.7035   -0.4794   -0.7079 C   0  0  0  0  0  0
    1.0137   -0.6987   -1.7058 O   0  0  0  0  0  0
    3.2191   -0.2254   -0.8394 C   0  0  2  0  0  0
    3.5430    1.0775   -1.6057 C   0  0  0  0  0  0
    4.5707    0.6815   -2.6639 C   0  0  2  0  0  0
    4.2556   -0.7874   -2.9442 C   0  0  0  0  0  0
    3.8701   -1.2956   -1.6238 N   0  0  0  0  0  0
    4.4681   -2.3672   -1.0378 C   0  0  0  0  0  0
    4.4086   -2.5568    0.1802 O   0  0  0  0  0  0
    5.1808   -3.4130   -1.9454 C   0  0  0  0  0  0
    6.6984   -3.1984   -1.9364 C   0  0  0  0  0  0
    6.1168   -4.3579   -1.1861 C   0  0  0  0  0  0
    4.4484   -3.9625   -3.1902 C   0  0  0  0  0  0
    5.2472   -4.3486   -4.2255 N   0  0  0  0  0  0
    4.6691   -4.8492   -5.3461 C   0  0  0  0  0  0
    3.2896   -4.9983   -5.4804 C   0  0  0  0  0  0
    2.6089   -5.6416   -6.9296 Cl  0  0  0  0  0  0
    2.4729   -4.6233   -4.4140 C   0  0  0  0  0  0
    3.0491   -4.1067   -3.2520 C   0  0  0  0  0  0
    2.2500   -3.7793   -2.2107 F   0  0  0  0  0  0
    6.3441    0.8610   -1.9767 S   0  0  0  0  0  0
    6.3611    0.3908   -0.5858 O   0  0  0  0  0  0
    7.2801    0.2609   -2.9325 O   0  0  0  0  0  0
    6.6244    2.6532   -1.9415 C   0  0  0  0  0  0
    6.3448    3.2947   -0.7260 C   0  0  0  0  0  0
    6.5317    4.6643   -0.5730 C   0  0  0  0  0  0
    7.0070    5.4192   -1.6372 C   0  0  0  0  0  0
    7.2870    4.8026   -2.8531 C   0  0  0  0  0  0
    7.0943    3.4228   -3.0381 C   0  0  0  0  0  0
    7.4309    2.8325   -4.4179 C   0  0  0  0  0  0
    7.5664    3.7771   -5.3518 F   0  0  0  0  0  0
    8.5878    2.1745   -4.3502 F   0  0  0  0  0  0
    6.4782    2.0097   -4.8512 F   0  0  0  0  0  0
   -0.9630    0.8528    0.4168 C   0  0  0  0  0  0
   -0.3888    1.8971    0.0860 O   0  0  0  0  0  0
   -2.5455    0.7550    0.3619 C   0  0  0  0  0  0
   -3.1373   -0.3018    0.5892 O   0  0  0  0  0  0
   -3.1219    1.9307    0.0507 N   0  0  0  0  0  0
   -4.5518    2.1118   -0.1733 C   0  0  0  0  0  0
   -5.2346    3.3001    0.4626 C   0  0  0  0  0  0
   -5.5164    1.9087    0.9768 C   0  0  0  0  0  0
    0.0175    0.1881    4.3850 H   0  0  0  0  0  0
   -0.3723    1.4056    3.1802 H   0  0  0  0  0  0
    1.2067    0.6216    3.1646 H   0  0  0  0  0  0
    0.0837   -1.5844    2.6827 H   0  0  0  0  0  0
   -1.4662   -0.8161    2.6592 H   0  0  0  0  0  0
   -0.6563   -1.2939    0.3821 H   0  0  0  0  0  0
    1.8076   -0.1280    1.2902 H   0  0  0  0  0  0
    3.6118   -0.1975    0.1792 H   0  0  0  0  0  0
    2.6781    1.4766   -2.1405 H   0  0  0  0  0  0
    3.8961    1.8741   -0.9518 H   0  0  0  0  0  0
    4.5383    1.2992   -3.5595 H   0  0  0  0  0  0
    3.3531   -0.8093   -3.5569 H   0  0  0  0  0  0
    5.0510   -1.3137   -3.4727 H   0  0  0  0  0  0
    7.2755   -3.3932   -2.8403 H   0  0  0  0  0  0
    7.1264   -2.3692   -1.3702 H   0  0  0  0  0  0
    6.2640   -5.3636   -1.5811 H   0  0  0  0  0  0
    6.1650   -4.3511   -0.0964 H   0  0  0  0  0  0
    5.3375   -5.1341   -6.1453 H   0  0  0  0  0  0
    1.4008   -4.7379   -4.4807 H   0  0  0  0  0  0
    5.9778    2.7346    0.1212 H   0  0  0  0  0  0
    6.3118    5.1386    0.3723 H   0  0  0  0  0  0
    7.1591    6.4823   -1.5210 H   0  0  0  0  0  0
    7.6597    5.4216   -3.6561 H   0  0  0  0  0  0
   -2.5238    2.7131   -0.1727 H   0  0  0  0  0  0
   -4.8790    1.7977   -1.1656 H   0  0  0  0  0  0
   -4.6422    3.9811    1.0746 H   0  0  0  0  0  0
   -6.0023    3.8201   -0.1106 H   0  0  0  0  0  0
   -5.1214    1.6115    1.9489 H   0  0  0  0  0  0
   -6.4811    1.4482    0.7638 H   0  0  0  0  0  0
  1  2  1  0  0  0
  1 46  1  0  0  0
  1 47  1  0  0  0
  1 48  1  0  0  0
  2  3  1  0  0  0
  2 49  1  0  0  0
  2 50  1  0  0  0
  3  4  1  0  0  0
  3 38  1  0  0  0
  3 51  1  0  0  0
  4  5  1  0  0  0
  4 52  1  0  0  0
  5  6  2  0  0  0
  5  7  1  0  0  0
  7  8  1  0  0  0
  7 11  1  0  0  0
  7 53  1  0  0  0
  8  9  1  0  0  0
  8 54  1  0  0  0
  8 55  1  0  0  0
  9 10  1  0  0  0
  9 25  1  0  0  0
  9 56  1  0  0  0
 10 11  1  0  0  0
 10 57  1  0  0  0
 10 58  1  0  0  0
 11 12  1  0  0  0
 12 13  2  0  0  0
 12 14  1  0  0  0
 14 15  1  0  0  0
 14 16  1  0  0  0
 14 17  1  0  0  0
 15 16  1  0  0  0
 15 59  1  0  0  0
 15 60  1  0  0  0
 16 61  1  0  0  0
 16 62  1  0  0  0
 17 18  2  0  0  0
 17 23  1  0  0  0
 18 19  1  0  0  0
 19 20  2  0  0  0
 19 63  1  0  0  0
 20 21  1  0  0  0
 20 22  1  0  0  0
 22 23  2  0  0  0
 22 64  1  0  0  0
 23 24  1  0  0  0
 25 26  2  0  0  0
 25 27  2  0  0  0
 25 28  1  0  0  0
 28 29  2  0  0  0
 28 33  1  0  0  0
 29 30  1  0  0  0
 29 65  1  0  0  0
 30 31  2  0  0  0
 30 66  1  0  0  0
 31 32  1  0  0  0
 31 67  1  0  0  0
 32 33  2  0  0  0
 32 68  1  0  0  0
 33 34  1  0  0  0
 34 35  1  0  0  0
 34 36  1  0  0  0
 34 37  1  0  0  0
 38 39  2  0  0  0
 38 40  1  0  0  0
 40 41  2  0  0  0
 40 42  1  0  0  0
 42 43  1  0  0  0
 42 69  1  0  0  0
 43 44  1  0  0  0
 43 45  1  0  0  0
 43 70  1  0  0  0
 44 45  1  0  0  0
 44 71  1  0  0  0
 44 72  1  0  0  0
 45 73  1  0  0  0
 45 74  1  0  0  0
M  END
> <chembl_id>
CHEMBL3649380

> <chembl_pref_name>
None

> <i_m_ct_stereo_status>
1

> <s_m_source_file>
sdf/inactives_sanitized.sdf

> <i_m_source_file_index>
576

> <i_lp_mmshare_version>
49012

> <i_f3d_flags>
0

> <s_epik_input>
W0NIMl0xW0NIMl1bQ0hdMVtOSF1DKD1PKUMoPU8pW0NASF0oW0NIMl1bQ0gzXSlbTkhdQyg9TylbQ0BASF0yW0NIMl1bQ0BASF0oUyg9TykoPU8pYzNbY0hdW2NIXVtjSF1bY0hdYzNDKEYpKEYpRilbQ0gyXU4yQyg9TylDNChbQ0gyXVtDSDJdNCljNW5bY0hdYyhDbClbY0hdYzVG

> <s_epik_cmdline>
J2VwaWtfcHl0aG9uJywgJy1waHQnLCAnMC41JywgJy1waCcsICc3LjUnLCAnLW50JywgJy1tYScsICcyMDAnLCAnLWltYWUnLCAnPGluZmlsZS5tYWU+JywgJy1vbWFlJywgJzxvdXRmaWxlLm1hZT4n

> <r_lp_tautomer_probability>
1

> <r_epik_Ionization_Penalty>
  0.0000

> <r_epik_Ionization_Penalty_Charging>
  0.0000

> <r_epik_Ionization_Penalty_Neutral>
  0.0000

> <r_epik_State_Penalty>
 -0.0000

> <r_epik_Charging_Adjusted_Penalty>
0

> <i_epik_Tot_Q>
0

> <i_epik_Tot_abs_Q>
0

> <s_lp_Force_Field>
OPLS3e

> <r_lp_Energy>
55.515238

> <b_lp_Chiralities_Consistent>
1

> <s_lp_Variant>
sdf/inactives_sanitized.sdf:576-1

$$$$
sdf/inactives_sanitized.sdf:577
                    3D
 Schrodinger Suite 2020-1.
 47 49  0  0  1  0            999 V2000
   -0.6803    2.1011   -1.1095 C   0  0  0  0  0  0
   -1.1482    3.4185   -1.1669 C   0  0  0  0  0  0
   -1.4725    4.0765    0.0240 C   0  0  0  0  0  0
   -1.3119    3.4341    1.2520 C   0  0  0  0  0  0
   -0.8200    2.1300    1.3002 C   0  0  0  0  0  0
   -0.4952    1.4573    0.1189 C   0  0  0  0  0  0
    0.0701    0.0397    0.1676 C   0  0  0  0  0  0
    1.6197   -0.0087    0.0422 C   0  0  2  0  0  0
    2.1068    0.5997   -1.2014 N   0  0  0  0  0  0
    2.1235   -1.4620    0.1234 C   0  0  0  0  0  0
    1.9082   -2.2392   -0.8088 O   0  0  0  0  0  0
    2.7494   -1.8160    1.2582 N   0  0  0  0  0  0
    3.3186   -3.1387    1.4970 C   0  0  0  0  0  0
    4.4422   -3.4520    0.5961 C   0  0  0  0  0  0
    5.3245   -3.6977   -0.1111 N   0  0  0  0  0  0
    2.6867    1.8101   -1.3185 C   0  0  0  0  0  0
    2.9063    2.5507   -0.3576 O   0  0  0  0  0  0
    2.9908    2.2623   -2.7283 C   0  0  0  0  0  0
    3.0451    3.6331   -3.0182 C   0  0  0  0  0  0
    3.2999    4.0711   -4.3148 C   0  0  0  0  0  0
    3.5082    3.1410   -5.3290 C   0  0  0  0  0  0
    3.4665    1.7765   -5.0575 C   0  0  0  0  0  0
    3.2100    1.3370   -3.7616 C   0  0  0  0  0  0
   -1.2862    4.1212   -2.4739 C   0  0  0  0  0  0
   -2.0709    5.1904   -2.8829 C   0  0  0  0  0  0
   -1.7566    5.4078   -4.2279 C   0  0  0  0  0  0
   -0.8487    4.5699   -4.6671 N   0  0  0  0  0  0
   -0.5747    3.8030   -3.6064 N   0  0  0  0  0  0
   -0.4327    1.5790   -2.0226 H   0  0  0  0  0  0
   -1.8390    5.0925    0.0039 H   0  0  0  0  0  0
   -1.5586    3.9519    2.1672 H   0  0  0  0  0  0
   -0.6840    1.6483    2.2576 H   0  0  0  0  0  0
   -0.2598   -0.4401    1.0913 H   0  0  0  0  0  0
   -0.4063   -0.5412   -0.6251 H   0  0  0  0  0  0
    2.0256    0.5402    0.8955 H   0  0  0  0  0  0
    1.9722    0.0433   -2.0329 H   0  0  0  0  0  0
    2.9045   -1.1181    1.9715 H   0  0  0  0  0  0
    2.5567   -3.9132    1.3944 H   0  0  0  0  0  0
    3.6867   -3.1858    2.5218 H   0  0  0  0  0  0
    2.8782    4.3702   -2.2450 H   0  0  0  0  0  0
    3.3330    5.1281   -4.5334 H   0  0  0  0  0  0
    3.7051    3.4812   -6.3350 H   0  0  0  0  0  0
    3.6319    1.0610   -5.8496 H   0  0  0  0  0  0
    3.1853    0.2729   -3.5742 H   0  0  0  0  0  0
   -2.7817    5.7425   -2.2858 H   0  0  0  0  0  0
   -2.1848    6.1665   -4.8665 H   0  0  0  0  0  0
    0.1088    3.0612   -3.6549 H   0  0  0  0  0  0
  1  6  2  0  0  0
  1  2  1  0  0  0
  1 29  1  0  0  0
  2  3  2  0  0  0
  2 24  1  0  0  0
  3  4  1  0  0  0
  3 30  1  0  0  0
  4  5  2  0  0  0
  4 31  1  0  0  0
  5  6  1  0  0  0
  5 32  1  0  0  0
  6  7  1  0  0  0
  7  8  1  0  0  0
  7 33  1  0  0  0
  7 34  1  0  0  0
  8  9  1  0  0  0
  8 10  1  0  0  0
  8 35  1  0  0  0
  9 16  1  0  0  0
  9 36  1  0  0  0
 10 11  2  0  0  0
 10 12  1  0  0  0
 12 13  1  0  0  0
 12 37  1  0  0  0
 13 14  1  0  0  0
 13 38  1  0  0  0
 13 39  1  0  0  0
 14 15  3  0  0  0
 16 17  2  0  0  0
 16 18  1  0  0  0
 18 19  2  0  0  0
 18 23  1  0  0  0
 19 20  1  0  0  0
 19 40  1  0  0  0
 20 21  2  0  0  0
 20 41  1  0  0  0
 21 22  1  0  0  0
 21 42  1  0  0  0
 22 23  2  0  0  0
 22 43  1  0  0  0
 23 44  1  0  0  0
 24 25  2  0  0  0
 24 28  1  0  0  0
 25 26  1  0  0  0
 25 45  1  0  0  0
 26 27  2  0  0  0
 26 46  1  0  0  0
 27 28  1  0  0  0
 28 47  1  0  0  0
M  END
> <chembl_id>
CHEMBL563056

> <chembl_pref_name>
None

> <i_m_ct_stereo_status>
1

> <s_m_source_file>
sdf/inactives_sanitized.sdf

> <i_m_source_file_index>
577

> <i_lp_mmshare_version>
49012

> <i_f3d_flags>
0

> <s_epik_input>
W25IXTFuW2NIXVtjSF1jMS1jMltjSF1jKFtjSF1bY0hdW2NIXTIpW0NIMl1bQ0BASF0oQyg9TylbTkhdW0NIMl1DI04pW05IXUMoPU8pYzNbY0hdW2NIXVtjSF1bY0hdW2NIXTM=

> <s_epik_cmdline>
J2VwaWtfcHl0aG9uJywgJy1waHQnLCAnMC41JywgJy1waCcsICc3LjUnLCAnLW50JywgJy1tYScsICcyMDAnLCAnLWltYWUnLCAnPGluZmlsZS5tYWU+JywgJy1vbWFlJywgJzxvdXRmaWxlLm1hZT4n

> <r_lp_tautomer_probability>
1

> <r_epik_Ionization_Penalty>
  0.0000

> <r_epik_Ionization_Penalty_Charging>
  0.0000

> <r_epik_Ionization_Penalty_Neutral>
  0.0000

> <r_epik_State_Penalty>
 -0.0000

> <r_epik_Charging_Adjusted_Penalty>
0

> <i_epik_Tot_Q>
0

> <i_epik_Tot_abs_Q>
0

> <s_lp_Force_Field>
OPLS3e

> <r_lp_Energy>
25.973004

> <b_lp_Chiralities_Consistent>
1

> <s_lp_Variant>
sdf/inactives_sanitized.sdf:577-1

$$$$
sdf/inactives_sanitized.sdf:578
                    3D
 Schrodinger Suite 2020-1.
 50 51  0  0  1  0            999 V2000
   -4.2142   -0.1005    1.1259 C   0  0  0  0  0  0
   -4.9680    0.0496   -0.0612 C   0  0  0  0  0  0
   -4.3173    0.4618   -1.2330 C   0  0  0  0  0  0
   -2.9547    0.7148   -1.2457 C   0  0  0  0  0  0
   -2.1878    0.5589   -0.0920 C   0  0  0  0  0  0
   -2.8247    0.1755    1.1093 C   0  0  0  0  0  0
   -4.8789   -0.5598    2.4439 C   0  0  0  0  0  0
   -6.1605   -0.9092    2.3458 F   0  0  0  0  0  0
   -4.2371   -1.6241    2.9290 F   0  0  0  0  0  0
   -4.8078    0.4261    3.3392 F   0  0  0  0  0  0
   -1.9100    0.0845    2.5918 Cl  0  0  0  0  0  0
   -0.7147    0.8713   -0.1861 C   0  0  0  0  0  0
    0.1171   -0.0878    0.2700 N   0  0  0  0  0  0
   -0.3276    1.9258   -0.6923 O   0  0  0  0  0  0
    1.5895   -0.0628    0.2451 C   0  0  2  0  0  0
    2.0933   -0.2938   -1.1823 C   0  0  0  0  0  0
    2.1101   -1.1588    1.1993 C   0  0  0  0  0  0
    1.4033   -0.6473   -2.1427 O   0  0  0  0  0  0
    3.6372   -0.0319   -1.3894 C   0  0  0  0  0  0
    4.3877   -1.1023   -1.7754 N   0  0  0  0  0  0
   -6.3303   -0.2025   -0.0331 O   0  0  0  0  0  0
   -7.1197   -0.0480   -1.2145 C   0  0  0  0  0  0
   -8.5872   -0.3661   -0.9513 C   0  0  0  0  0  0
   -9.3738   -0.3970   -2.0609 N   0  0  0  0  0  0
  -10.6949   -0.6668   -1.9020 C   0  0  0  0  0  0
  -11.2745   -0.9090   -0.6556 C   0  0  0  0  0  0
  -10.4580   -0.8701    0.4760 C   0  0  0  0  0  0
   -9.0964   -0.5941    0.3345 C   0  0  0  0  0  0
    4.0629    1.1085   -1.1965 O   0  0  0  0  0  0
    3.9425   -2.4951   -1.9253 C   0  0  0  0  0  0
    5.8186   -0.9471   -2.0477 C   0  0  0  0  0  0
   -4.8528    0.5952   -2.1601 H   0  0  0  0  0  0
   -2.4963    1.0283   -2.1739 H   0  0  0  0  0  0
   -0.2898   -0.9291    0.6517 H   0  0  0  0  0  0
    1.9205    0.9078    0.6215 H   0  0  0  0  0  0
    3.1989   -1.1537    1.2686 H   0  0  0  0  0  0
    1.8041   -2.1573    0.8819 H   0  0  0  0  0  0
    1.7290   -1.0085    2.2104 H   0  0  0  0  0  0
   -7.0518    0.9810   -1.5732 H   0  0  0  0  0  0
   -6.7491   -0.7185   -1.9928 H   0  0  0  0  0  0
  -11.2942   -0.6865   -2.8003 H   0  0  0  0  0  0
  -12.3301   -1.1205   -0.5682 H   0  0  0  0  0  0
  -10.8764   -1.0511    1.4552 H   0  0  0  0  0  0
   -8.4630   -0.5584    1.2079 H   0  0  0  0  0  0
    2.9052   -2.6701   -1.6439 H   0  0  0  0  0  0
    4.5536   -3.1489   -1.3022 H   0  0  0  0  0  0
    4.0626   -2.8149   -2.9610 H   0  0  0  0  0  0
    6.1631    0.0856   -1.9759 H   0  0  0  0  0  0
    6.0501   -1.2995   -3.0534 H   0  0  0  0  0  0
    6.4018   -1.5396   -1.3419 H   0  0  0  0  0  0
  1  6  2  0  0  0
  1  2  1  0  0  0
  1  7  1  0  0  0
  2 21  1  0  0  0
  2  3  2  0  0  0
  3  4  1  0  0  0
  3 32  1  0  0  0
  4  5  2  0  0  0
  4 33  1  0  0  0
  5  6  1  0  0  0
  5 12  1  0  0  0
  6 11  1  0  0  0
  7  8  1  0  0  0
  7  9  1  0  0  0
  7 10  1  0  0  0
 12 13  1  0  0  0
 12 14  2  0  0  0
 13 15  1  0  0  0
 13 34  1  0  0  0
 15 16  1  0  0  0
 15 17  1  0  0  0
 15 35  1  0  0  0
 16 18  2  0  0  0
 16 19  1  0  0  0
 17 36  1  0  0  0
 17 37  1  0  0  0
 17 38  1  0  0  0
 19 20  1  0  0  0
 19 29  2  0  0  0
 20 30  1  0  0  0
 20 31  1  0  0  0
 21 22  1  0  0  0
 22 23  1  0  0  0
 22 39  1  0  0  0
 22 40  1  0  0  0
 23 24  2  0  0  0
 23 28  1  0  0  0
 24 25  1  0  0  0
 25 26  2  0  0  0
 25 41  1  0  0  0
 26 27  1  0  0  0
 26 42  1  0  0  0
 27 28  2  0  0  0
 27 43  1  0  0  0
 28 44  1  0  0  0
 30 45  1  0  0  0
 30 46  1  0  0  0
 30 47  1  0  0  0
 31 48  1  0  0  0
 31 49  1  0  0  0
 31 50  1  0  0  0
M  END
> <chembl_id>
CHEMBL1289857

> <chembl_pref_name>
None

> <s_m_source_file>
sdf/inactives_sanitized.sdf

> <i_m_source_file_index>
578

> <i_lp_mmshare_version>
49012

> <i_m_ct_stereo_status>
1

> <i_f3d_flags>
0

> <s_epik_input>
W2NIXTFbY0hdW2NIXVtjSF1uYzFbQ0gyXU9jKGMyQyhGKShGKUYpW2NIXVtjSF1jKGMyQ2wpQyg9TylbTkhdW0NAQEhdKFtDSDNdKUMoPU8pQyg9TylOKFtDSDNdKVtDSDNd

> <s_epik_cmdline>
J2VwaWtfcHl0aG9uJywgJy1waHQnLCAnMC41JywgJy1waCcsICc3LjUnLCAnLW50JywgJy1tYScsICcyMDAnLCAnLWltYWUnLCAnPGluZmlsZS5tYWU+JywgJy1vbWFlJywgJzxvdXRmaWxlLm1hZT4n

> <r_lp_tautomer_probability>
1

> <r_epik_Ionization_Penalty>
  0.0010

> <r_epik_Ionization_Penalty_Charging>
  0.0000

> <r_epik_Ionization_Penalty_Neutral>
  0.0010

> <r_epik_State_Penalty>
 -0.0000

> <r_epik_Charging_Adjusted_Penalty>
0

> <i_epik_Tot_Q>
0

> <i_epik_Tot_abs_Q>
0

> <s_lp_Force_Field>
OPLS3e

> <r_lp_Energy>
53.201928

> <b_lp_Chiralities_Consistent>
1

> <s_lp_Variant>
sdf/inactives_sanitized.sdf:578-1

$$$$
sdf/inactives_sanitized.sdf:579
                    3D
 Schrodinger Suite 2020-1.
 50 52  0  0  1  0            999 V2000
   -2.2436   -2.3139    1.9584 S   0  0  0  0  0  0
   -1.0432   -3.1087    2.2437 O   0  0  0  0  0  0
   -2.8815   -1.5172    3.0132 O   0  0  0  0  0  0
   -1.8566   -1.2212    0.6296 N   0  0  1  0  0  0
   -1.2601    0.1163    0.9258 C   0  0  0  0  0  0
   -0.1843    0.2739   -0.1812 C   0  0  2  0  0  0
   -0.7290   -0.5706   -1.3590 C   0  0  1  0  0  0
   -1.3523   -1.7845   -0.6517 C   0  0  0  0  0  0
    1.2068   -0.2726    0.2478 C   0  0  0  0  0  0
   -1.8013    0.1688   -2.2193 C   0  0  0  0  0  0
   -2.2626    1.2414   -1.8193 O   0  0  0  0  0  0
   -2.2855   -0.4409   -3.3363 N   0  0  0  0  0  0
   -1.5904   -1.5495   -4.0115 C   0  0  0  0  0  0
   -0.8540   -0.9308   -5.2216 C   0  0  0  0  0  0
   -1.7830   -0.2470   -6.0650 O   0  0  0  0  0  0
   -2.4997    0.7974   -5.4020 C   0  0  0  0  0  0
   -3.2795    0.2331   -4.1905 C   0  0  0  0  0  0
    2.2775    0.3920   -0.2210 N   0  0  0  0  0  0
    1.3083   -1.2007    1.0520 O   0  0  0  0  0  0
    3.6614    0.0953    0.1399 C   0  0  0  0  0  0
    3.9605    0.3924    1.5519 C   0  0  0  0  0  0
    4.1960    0.6265    2.6604 N   0  0  0  0  0  0
   -3.4875   -3.4161    1.2902 C   0  0  0  0  0  0
   -4.8358   -3.0554    1.3500 C   0  0  0  0  0  0
   -5.8020   -3.9007    0.8112 C   0  0  0  0  0  0
   -5.4153   -5.0971    0.2102 C   0  0  0  0  0  0
   -4.0704   -5.4555    0.1400 C   0  0  0  0  0  0
   -3.1024   -4.6124    0.6795 C   0  0  0  0  0  0
   -1.9740    0.9223    0.7555 H   0  0  0  0  0  0
   -0.7701    0.1527    1.9004 H   0  0  0  0  0  0
   -0.0251    1.3072   -0.4992 H   0  0  0  0  0  0
    0.0696   -0.8330   -2.0558 H   0  0  0  0  0  0
   -2.1106   -2.3681   -1.1751 H   0  0  0  0  0  0
   -0.5518   -2.4948   -0.4403 H   0  0  0  0  0  0
   -1.0128   -2.2224   -3.3783 H   0  0  0  0  0  0
   -2.3987   -2.1833   -4.3794 H   0  0  0  0  0  0
   -0.0684   -0.2476   -4.8926 H   0  0  0  0  0  0
   -0.3499   -1.7120   -5.7905 H   0  0  0  0  0  0
   -1.8113    1.5850   -5.0891 H   0  0  0  0  0  0
   -3.1905    1.2641   -6.1042 H   0  0  0  0  0  0
   -3.9391   -0.5675   -4.5277 H   0  0  0  0  0  0
   -3.9350    0.9344   -3.6721 H   0  0  0  0  0  0
    2.1282    1.2012   -0.8059 H   0  0  0  0  0  0
    3.8985   -0.9512   -0.0584 H   0  0  0  0  0  0
    4.3265    0.6972   -0.4792 H   0  0  0  0  0  0
   -5.1369   -2.1253    1.8098 H   0  0  0  0  0  0
   -6.8464   -3.6295    0.8571 H   0  0  0  0  0  0
   -6.1659   -5.7519   -0.2077 H   0  0  0  0  0  0
   -3.7800   -6.3825   -0.3320 H   0  0  0  0  0  0
   -2.0600   -4.8892    0.6187 H   0  0  0  0  0  0
  1  2  2  0  0  0
  1  3  2  0  0  0
  1  4  1  0  0  0
  1 23  1  0  0  0
  4  5  1  0  0  0
  4  8  1  0  0  0
  5  6  1  0  0  0
  5 29  1  0  0  0
  5 30  1  0  0  0
  6  7  1  0  0  0
  6  9  1  0  0  0
  6 31  1  0  0  0
  7  8  1  0  0  0
  7 10  1  0  0  0
  7 32  1  0  0  0
  8 33  1  0  0  0
  8 34  1  0  0  0
  9 18  1  0  0  0
  9 19  2  0  0  0
 10 11  2  0  0  0
 10 12  1  0  0  0
 12 13  1  0  0  0
 12 17  1  0  0  0
 13 14  1  0  0  0
 13 35  1  0  0  0
 13 36  1  0  0  0
 14 15  1  0  0  0
 14 37  1  0  0  0
 14 38  1  0  0  0
 15 16  1  0  0  0
 16 17  1  0  0  0
 16 39  1  0  0  0
 16 40  1  0  0  0
 17 41  1  0  0  0
 17 42  1  0  0  0
 18 20  1  0  0  0
 18 43  1  0  0  0
 20 21  1  0  0  0
 20 44  1  0  0  0
 20 45  1  0  0  0
 21 22  3  0  0  0
 23 24  2  0  0  0
 23 28  1  0  0  0
 24 25  1  0  0  0
 24 46  1  0  0  0
 25 26  2  0  0  0
 25 47  1  0  0  0
 26 27  1  0  0  0
 26 48  1  0  0  0
 27 28  2  0  0  0
 27 49  1  0  0  0
 28 50  1  0  0  0
M  END
> <chembl_id>
CHEMBL3093943

> <chembl_pref_name>
None

> <i_m_ct_stereo_status>
1

> <s_m_source_file>
sdf/inactives_sanitized.sdf

> <i_m_source_file_index>
579

> <i_lp_mmshare_version>
49012

> <i_f3d_flags>
0

> <s_epik_input>
W2NIXTFbY0hdW2NIXVtjSF1bY0hdYzFTKD1PKSg9TylOMltDSDJdW0NAQEhdKEMoPU8pW05IXVtDSDJdQyNOKVtDQEBIXShbQ0gyXTIpQyg9TylOM1tDSDJdW0NIMl1PW0NIMl1bQ0gyXTM=

> <s_epik_cmdline>
J2VwaWtfcHl0aG9uJywgJy1waHQnLCAnMC41JywgJy1waCcsICc3LjUnLCAnLW50JywgJy1tYScsICcyMDAnLCAnLWltYWUnLCAnPGluZmlsZS5tYWU+JywgJy1vbWFlJywgJzxvdXRmaWxlLm1hZT4n

> <r_lp_tautomer_probability>
1

> <r_epik_Ionization_Penalty>
  0.0000

> <r_epik_Ionization_Penalty_Charging>
  0.0000

> <r_epik_Ionization_Penalty_Neutral>
  0.0000

> <r_epik_State_Penalty>
 -0.0000

> <r_epik_Charging_Adjusted_Penalty>
0

> <i_epik_Tot_Q>
0

> <i_epik_Tot_abs_Q>
0

> <s_lp_Force_Field>
OPLS3e

> <r_lp_Energy>
4.168624

> <b_lp_Chiralities_Consistent>
1

> <s_lp_Variant>
sdf/inactives_sanitized.sdf:579-1

$$$$
sdf/inactives_sanitized.sdf:580
                    3D
 Schrodinger Suite 2020-1.
 55 58  0  0  1  0            999 V2000
    3.2991    1.6654    0.1852 C   0  0  0  0  0  0
    3.8457    2.4007    1.3905 C   0  0  0  0  0  0
    4.2760    0.9818    1.1252 C   0  0  0  0  0  0
   -2.1343   -3.1883    1.5070 S   0  0  0  0  0  0
   -3.3056   -2.4905    0.9640 O   0  0  0  0  0  0
   -2.0043   -4.6403    1.3395 O   0  0  0  0  0  0
   -0.5538   -2.3661    0.8433 C   0  0  2  0  0  0
   -0.5266   -0.8513    1.1419 C   0  0  0  0  0  0
   -0.0864   -0.1516   -0.1635 C   0  0  2  0  0  0
   -0.5671   -1.1102   -1.2986 C   0  0  1  0  0  0
   -0.4348   -2.5256   -0.6857 C   0  0  0  0  0  0
    1.4532    0.0415   -0.1704 C   0  0  0  0  0  0
   -2.0414   -0.8418   -1.7338 C   0  0  0  0  0  0
   -2.7573   -0.1256   -1.0278 O   0  0  0  0  0  0
   -2.5423   -1.5015   -2.8143 N   0  0  0  0  0  0
   -1.6909   -2.1351   -3.8346 C   0  0  0  0  0  0
   -1.6364   -1.1538   -5.0269 C   0  0  0  0  0  0
   -2.9587   -0.8719   -5.4903 O   0  0  0  0  0  0
   -3.8098   -0.3068   -4.4900 C   0  0  0  0  0  0
   -3.9208   -1.2563   -3.2731 C   0  0  0  0  0  0
    1.8988    1.2506    0.2139 N   0  0  0  0  0  0
    2.2083   -0.8354   -0.5943 O   0  0  0  0  0  0
    3.8070    2.0301   -1.1493 C   0  0  0  0  0  0
    4.2053    2.3166   -2.1972 N   0  0  0  0  0  0
   -2.0693   -2.8529    3.2658 C   0  0  0  0  0  0
   -2.7827   -1.7777    3.8021 C   0  0  0  0  0  0
   -2.7174   -1.5181    5.1685 C   0  0  0  0  0  0
   -1.9402   -2.3323    5.9901 C   0  0  0  0  0  0
   -1.2263   -3.4044    5.4584 C   0  0  0  0  0  0
   -1.2906   -3.6662    4.0923 C   0  0  0  0  0  0
    4.5660    3.2040    1.2327 H   0  0  0  0  0  0
    3.1880    2.5926    2.2387 H   0  0  0  0  0  0
    5.2959    0.8015    0.7839 H   0  0  0  0  0  0
    3.9150    0.1958    1.7895 H   0  0  0  0  0  0
    0.2723   -2.8778    1.3387 H   0  0  0  0  0  0
   -1.5222   -0.4825    1.3907 H   0  0  0  0  0  0
    0.1076   -0.6133    1.9982 H   0  0  0  0  0  0
   -0.5090    0.8477   -0.2962 H   0  0  0  0  0  0
    0.0315   -0.9631   -2.1994 H   0  0  0  0  0  0
   -1.1447   -3.2517   -1.0870 H   0  0  0  0  0  0
    0.5489   -2.9227   -0.9393 H   0  0  0  0  0  0
   -0.7423   -2.5487   -3.4929 H   0  0  0  0  0  0
   -2.2533   -3.0200   -4.1355 H   0  0  0  0  0  0
   -1.1276   -0.2289   -4.7478 H   0  0  0  0  0  0
   -1.0475   -1.5846   -5.8365 H   0  0  0  0  0  0
   -3.4324    0.6715   -4.1863 H   0  0  0  0  0  0
   -4.7981   -0.1296   -4.9139 H   0  0  0  0  0  0
   -4.2770   -2.2318   -3.6066 H   0  0  0  0  0  0
   -4.6200   -0.9553   -2.4916 H   0  0  0  0  0  0
    1.2218    1.9724    0.4140 H   0  0  0  0  0  0
   -3.3828   -1.1418    3.1677 H   0  0  0  0  0  0
   -3.2661   -0.6885    5.5893 H   0  0  0  0  0  0
   -1.8901   -2.1300    7.0499 H   0  0  0  0  0  0
   -0.6253   -4.0291    6.1027 H   0  0  0  0  0  0
   -0.7350   -4.4961    3.6804 H   0  0  0  0  0  0
  1  2  1  0  0  0
  1  3  1  0  0  0
  1 21  1  0  0  0
  1 23  1  0  0  0
  2  3  1  0  0  0
  2 31  1  0  0  0
  2 32  1  0  0  0
  3 33  1  0  0  0
  3 34  1  0  0  0
  4  5  2  0  0  0
  4  6  2  0  0  0
  4  7  1  0  0  0
  4 25  1  0  0  0
  7  8  1  0  0  0
  7 11  1  0  0  0
  7 35  1  0  0  0
  8  9  1  0  0  0
  8 36  1  0  0  0
  8 37  1  0  0  0
  9 10  1  0  0  0
  9 12  1  0  0  0
  9 38  1  0  0  0
 10 11  1  0  0  0
 10 13  1  0  0  0
 10 39  1  0  0  0
 11 40  1  0  0  0
 11 41  1  0  0  0
 12 21  1  0  0  0
 12 22  2  0  0  0
 13 14  2  0  0  0
 13 15  1  0  0  0
 15 16  1  0  0  0
 15 20  1  0  0  0
 16 17  1  0  0  0
 16 42  1  0  0  0
 16 43  1  0  0  0
 17 18  1  0  0  0
 17 44  1  0  0  0
 17 45  1  0  0  0
 18 19  1  0  0  0
 19 20  1  0  0  0
 19 46  1  0  0  0
 19 47  1  0  0  0
 20 48  1  0  0  0
 20 49  1  0  0  0
 21 50  1  0  0  0
 23 24  3  0  0  0
 25 26  2  0  0  0
 25 30  1  0  0  0
 26 27  1  0  0  0
 26 51  1  0  0  0
 27 28  2  0  0  0
 27 52  1  0  0  0
 28 29  1  0  0  0
 28 53  1  0  0  0
 29 30  2  0  0  0
 29 54  1  0  0  0
 30 55  1  0  0  0
M  END
> <chembl_id>
CHEMBL3093947

> <chembl_pref_name>
None

> <i_m_ct_stereo_status>
1

> <s_m_source_file>
sdf/inactives_sanitized.sdf

> <i_m_source_file_index>
580

> <i_lp_mmshare_version>
49012

> <i_f3d_flags>
0

> <s_epik_input>
W0NIMl0xW0NIMl1PW0NIMl1bQ0gyXU4xQyg9TylbQ0BIXShbQ0gyXTIpW0NASF0oQyg9TylbTkhdQzMoQyNOKVtDSDJdW0NIMl0zKVtDSDJdW0NASF0yUyg9TykoPU8pYzRbY0hdW2NIXVtjSF1bY0hdW2NIXTQ=

> <s_epik_cmdline>
J2VwaWtfcHl0aG9uJywgJy1waHQnLCAnMC41JywgJy1waCcsICc3LjUnLCAnLW50JywgJy1tYScsICcyMDAnLCAnLWltYWUnLCAnPGluZmlsZS5tYWU+JywgJy1vbWFlJywgJzxvdXRmaWxlLm1hZT4n

> <r_lp_tautomer_probability>
1

> <r_epik_Ionization_Penalty>
  0.0000

> <r_epik_Ionization_Penalty_Charging>
  0.0000

> <r_epik_Ionization_Penalty_Neutral>
  0.0000

> <r_epik_State_Penalty>
 -0.0000

> <r_epik_Charging_Adjusted_Penalty>
0

> <i_epik_Tot_Q>
0

> <i_epik_Tot_abs_Q>
0

> <s_lp_Force_Field>
OPLS3e

> <r_lp_Energy>
24.104631

> <b_lp_Chiralities_Consistent>
1

> <s_lp_Variant>
sdf/inactives_sanitized.sdf:580-1

$$$$
sdf/inactives_sanitized.sdf:581
                    3D
 Schrodinger Suite 2020-1.
 34 33  0  0  1  0            999 V2000
   -1.4448   -1.8074   -0.9601 C   0  0  0  0  0  0
   -0.3430   -0.9594   -1.0071 N   0  0  0  0  0  0
   -1.5966   -2.3865   -2.1813 O   0  0  0  0  0  0
   -2.1665   -2.0086    0.0184 O   0  0  0  0  0  0
   -2.6198   -3.3371   -2.5328 C   0  0  0  0  0  0
    2.1225   -2.3185    0.6326 C   0  0  0  0  0  0
    2.4866   -1.0519    0.3536 C   0  0  0  0  0  0
   -1.2499    1.6766    1.0153 O   0  0  0  0  0  0
   -0.7178    1.1388    0.0457 C   0  0  0  0  0  0
    0.0588   -0.1572    0.1602 C   0  0  2  0  0  0
    1.5793    0.1603    0.1444 C   0  0  0  0  0  0
   -4.0340   -2.7180   -2.4070 C   0  0  0  0  0  0
   -2.5023   -4.6301   -1.6876 C   0  0  0  0  0  0
   -2.3411   -3.6691   -4.0131 C   0  0  0  0  0  0
    3.0911   -3.4664    0.8241 C   0  0  0  0  0  0
    0.1363   -0.8158   -1.8838 H   0  0  0  0  0  0
    1.0799   -2.5791    0.7372 H   0  0  0  0  0  0
    3.5416   -0.8360    0.2615 H   0  0  0  0  0  0
   -0.7403    1.5918   -0.9462 H   0  0  0  0  0  0
   -0.1754   -0.6527    1.1060 H   0  0  0  0  0  0
    1.8280    0.8770    0.9296 H   0  0  0  0  0  0
    1.8632    0.6270   -0.8012 H   0  0  0  0  0  0
   -4.7980   -3.3893   -2.8009 H   0  0  0  0  0  0
   -4.1051   -1.7805   -2.9601 H   0  0  0  0  0  0
   -4.3004   -2.5023   -1.3724 H   0  0  0  0  0  0
   -2.7368   -4.4599   -0.6369 H   0  0  0  0  0  0
   -1.4917   -5.0388   -1.7290 H   0  0  0  0  0  0
   -3.1828   -5.4031   -2.0466 H   0  0  0  0  0  0
   -3.0656   -4.3824   -4.4083 H   0  0  0  0  0  0
   -1.3485   -4.1022   -4.1463 H   0  0  0  0  0  0
   -2.3870   -2.7761   -4.6384 H   0  0  0  0  0  0
    2.9762   -3.8909    1.8216 H   0  0  0  0  0  0
    4.1268   -3.1435    0.7094 H   0  0  0  0  0  0
    2.8958   -4.2482    0.0899 H   0  0  0  0  0  0
  1  2  1  0  0  0
  1  3  1  0  0  0
  1  4  2  0  0  0
  2 10  1  0  0  0
  2 16  1  0  0  0
  3  5  1  0  0  0
  5 12  1  0  0  0
  5 13  1  0  0  0
  5 14  1  0  0  0
  6  7  2  0  0  0
  6 15  1  0  0  0
  6 17  1  0  0  0
  7 11  1  0  0  0
  7 18  1  0  0  0
  8  9  2  0  0  0
  9 10  1  0  0  0
  9 19  1  0  0  0
 10 11  1  0  0  0
 10 20  1  0  0  0
 11 21  1  0  0  0
 11 22  1  0  0  0
 12 23  1  0  0  0
 12 24  1  0  0  0
 12 25  1  0  0  0
 13 26  1  0  0  0
 13 27  1  0  0  0
 13 28  1  0  0  0
 14 29  1  0  0  0
 14 30  1  0  0  0
 14 31  1  0  0  0
 15 32  1  0  0  0
 15 33  1  0  0  0
 15 34  1  0  0  0
M  END
> <chembl_id>
CHEMBL94383

> <chembl_pref_name>
None

> <i_m_ct_stereo_status>
1

> <s_m_source_file>
sdf/inactives_sanitized.sdf

> <i_m_source_file_index>
581

> <i_lp_mmshare_version>
49012

> <i_f3d_flags>
0

> <s_epik_input>
W0NIM11DKFtDSDNdKShbQ0gzXSlPQyg9TylbTkhdW0NASF0oW0NIXT1PKVtDSDJdXFtDSF09W0NIXVxbQ0gzXQ==

> <s_epik_cmdline>
J2VwaWtfcHl0aG9uJywgJy1waHQnLCAnMC41JywgJy1waCcsICc3LjUnLCAnLW50JywgJy1tYScsICcyMDAnLCAnLWltYWUnLCAnPGluZmlsZS5tYWU+JywgJy1vbWFlJywgJzxvdXRmaWxlLm1hZT4n

> <r_lp_tautomer_probability>
1

> <r_epik_Ionization_Penalty>
  0.0007

> <r_epik_Ionization_Penalty_Charging>
  0.0000

> <r_epik_Ionization_Penalty_Neutral>
  0.0007

> <r_epik_State_Penalty>
 -0.0000

> <r_epik_Charging_Adjusted_Penalty>
0

> <i_epik_Tot_Q>
0

> <i_epik_Tot_abs_Q>
0

> <s_epik_Chemistry_Notes>
This compound has an ester and may undergo hydrolysis at high or low pH.

> <s_lp_Force_Field>
OPLS3e

> <r_lp_Energy>
6.20084

> <b_lp_Chiralities_Consistent>
1

> <s_lp_Variant>
sdf/inactives_sanitized.sdf:581-1

$$$$
sdf/inactives_sanitized.sdf:582
                    3D
 Schrodinger Suite 2020-1.
 50 52  0  0  1  0            999 V2000
    3.4082    1.4766   -0.7054 C   0  0  0  0  0  0
    4.3028    0.6552   -1.6163 C   0  0  0  0  0  0
    3.9490    2.0716   -1.9881 C   0  0  0  0  0  0
   -2.2124   -3.1535    1.4244 S   0  0  0  0  0  0
   -3.3573   -2.3759    0.9365 O   0  0  0  0  0  0
   -2.1390   -4.5945    1.1570 O   0  0  0  0  0  0
   -0.6031   -2.3497    0.8103 C   0  0  2  0  0  0
   -0.5204   -0.8573    1.1978 C   0  0  0  0  0  0
   -0.0550   -0.1007   -0.0700 C   0  0  2  0  0  0
   -0.5805   -0.9653   -1.2550 C   0  0  1  0  0  0
   -0.4858   -2.4176   -0.7265 C   0  0  0  0  0  0
    1.4918    0.0089   -0.1301 C   0  0  0  0  0  0
   -2.0504   -0.6232   -1.6504 C   0  0  0  0  0  0
   -2.7256    0.0823   -0.8957 O   0  0  0  0  0  0
   -2.5585   -1.0997   -2.8194 N   0  0  0  0  0  0
    1.9867    1.1465   -0.6480 N   0  0  0  0  0  0
    2.2139   -0.8647    0.3553 O   0  0  0  0  0  0
    3.9902    1.9189    0.5743 C   0  0  0  0  0  0
    4.4466    2.2662    1.5793 N   0  0  0  0  0  0
   -2.1322   -2.9411    3.2022 C   0  0  0  0  0  0
   -1.4332   -3.8696    3.9773 C   0  0  0  0  0  0
   -1.3614   -3.7034    5.3579 C   0  0  0  0  0  0
   -1.9853   -2.6097    5.9552 C   0  0  0  0  0  0
   -2.6821   -1.6805    5.1851 C   0  0  0  0  0  0
   -2.7566   -1.8457    3.8047 C   0  0  0  0  0  0
   -1.8410   -1.9569   -3.7671 C   0  0  0  0  0  0
   -3.9264   -0.8018   -3.2544 C   0  0  0  0  0  0
    5.3224    0.4389   -1.2959 H   0  0  0  0  0  0
    3.8675   -0.1597   -2.1960 H   0  0  0  0  0  0
    4.7236    2.8366   -1.9259 H   0  0  0  0  0  0
    3.2698    2.2343   -2.8257 H   0  0  0  0  0  0
    0.2029   -2.9204    1.2736 H   0  0  0  0  0  0
   -1.5013   -0.4677    1.4719 H   0  0  0  0  0  0
    0.1235   -0.6878    2.0630 H   0  0  0  0  0  0
   -0.4302    0.9258   -0.0722 H   0  0  0  0  0  0
    0.0117   -0.7821   -2.1538 H   0  0  0  0  0  0
   -1.2100   -3.1020   -1.1724 H   0  0  0  0  0  0
    0.4913   -2.8182   -1.0010 H   0  0  0  0  0  0
    1.3435    1.8844   -0.8949 H   0  0  0  0  0  0
   -0.9453   -4.7155    3.5153 H   0  0  0  0  0  0
   -0.8236   -4.4187    5.9630 H   0  0  0  0  0  0
   -1.9277   -2.4806    7.0260 H   0  0  0  0  0  0
   -3.1622   -0.8354    5.6563 H   0  0  0  0  0  0
   -3.2941   -1.1216    3.2103 H   0  0  0  0  0  0
   -0.8349   -2.2305   -3.4540 H   0  0  0  0  0  0
   -1.7610   -1.4582   -4.7337 H   0  0  0  0  0  0
   -2.3935   -2.8852   -3.9175 H   0  0  0  0  0  0
   -4.4696   -0.1545   -2.5647 H   0  0  0  0  0  0
   -4.4969   -1.7256   -3.3567 H   0  0  0  0  0  0
   -3.9120   -0.3072   -4.2262 H   0  0  0  0  0  0
  1  2  1  0  0  0
  1  3  1  0  0  0
  1 16  1  0  0  0
  1 18  1  0  0  0
  2  3  1  0  0  0
  2 28  1  0  0  0
  2 29  1  0  0  0
  3 30  1  0  0  0
  3 31  1  0  0  0
  4  5  2  0  0  0
  4  6  2  0  0  0
  4  7  1  0  0  0
  4 20  1  0  0  0
  7  8  1  0  0  0
  7 11  1  0  0  0
  7 32  1  0  0  0
  8  9  1  0  0  0
  8 33  1  0  0  0
  8 34  1  0  0  0
  9 10  1  0  0  0
  9 12  1  0  0  0
  9 35  1  0  0  0
 10 11  1  0  0  0
 10 13  1  0  0  0
 10 36  1  0  0  0
 11 37  1  0  0  0
 11 38  1  0  0  0
 12 16  1  0  0  0
 12 17  2  0  0  0
 13 14  2  0  0  0
 13 15  1  0  0  0
 15 26  1  0  0  0
 15 27  1  0  0  0
 16 39  1  0  0  0
 18 19  3  0  0  0
 20 21  2  0  0  0
 20 25  1  0  0  0
 21 22  1  0  0  0
 21 40  1  0  0  0
 22 23  2  0  0  0
 22 41  1  0  0  0
 23 24  1  0  0  0
 23 42  1  0  0  0
 24 25  2  0  0  0
 24 43  1  0  0  0
 25 44  1  0  0  0
 26 45  1  0  0  0
 26 46  1  0  0  0
 26 47  1  0  0  0
 27 48  1  0  0  0
 27 49  1  0  0  0
 27 50  1  0  0  0
M  END
> <chembl_id>
CHEMBL3093931

> <chembl_pref_name>
None

> <i_m_ct_stereo_status>
1

> <s_m_source_file>
sdf/inactives_sanitized.sdf

> <i_m_source_file_index>
582

> <i_lp_mmshare_version>
49012

> <i_f3d_flags>
0

> <s_epik_input>
W0NIMl0xW0NIMl1DMShDI04pW05IXUMoPU8pW0NAQEhdKFtDQEBIXShbQ0gyXTIpQyg9TylOKFtDSDNdKVtDSDNdKVtDSDJdW0NASF0yUyg9TykoPU8pYzNbY0hdW2NIXVtjSF1bY0hdW2NIXTM=

> <s_epik_cmdline>
J2VwaWtfcHl0aG9uJywgJy1waHQnLCAnMC41JywgJy1waCcsICc3LjUnLCAnLW50JywgJy1tYScsICcyMDAnLCAnLWltYWUnLCAnPGluZmlsZS5tYWU+JywgJy1vbWFlJywgJzxvdXRmaWxlLm1hZT4n

> <r_lp_tautomer_probability>
1

> <r_epik_Ionization_Penalty>
  0.0000

> <r_epik_Ionization_Penalty_Charging>
  0.0000

> <r_epik_Ionization_Penalty_Neutral>
  0.0000

> <r_epik_State_Penalty>
 -0.0000

> <r_epik_Charging_Adjusted_Penalty>
0

> <i_epik_Tot_Q>
0

> <i_epik_Tot_abs_Q>
0

> <s_lp_Force_Field>
OPLS3e

> <r_lp_Energy>
20.212643

> <b_lp_Chiralities_Consistent>
1

> <s_lp_Variant>
sdf/inactives_sanitized.sdf:582-1

$$$$
sdf/inactives_sanitized.sdf:583
                    3D
 Schrodinger Suite 2020-1.
 50 52  0  0  1  0            999 V2000
   -1.8303   -3.4933    1.4391 S   0  0  0  0  0  0
   -1.5244   -4.8553    0.9853 O   0  0  0  0  0  0
   -1.7314   -3.1791    2.8686 O   0  0  0  0  0  0
   -0.7688   -2.3945    0.5545 N   0  0  2  0  0  0
   -0.6439   -0.9725    0.9738 C   0  0  0  0  0  0
   -0.0089   -0.2894   -0.2544 C   0  0  2  0  0  0
   -0.5986   -1.0983   -1.4345 C   0  0  1  0  0  0
   -0.5985   -2.5579   -0.9202 C   0  0  0  0  0  0
    1.5457   -0.3435   -0.2744 C   0  0  0  0  0  0
   -2.0346   -0.6304   -1.8421 C   0  0  0  0  0  0
   -2.7098    0.0235   -1.0423 O   0  0  0  0  0  0
   -2.4393   -0.8076   -3.1298 N   0  0  0  0  0  0
   -1.9073   -1.8795   -3.9904 C   0  0  0  0  0  0
   -2.9665   -3.0072   -3.9980 C   0  0  0  0  0  0
   -4.2280   -2.5015   -4.4357 O   0  0  0  0  0  0
   -4.7284   -1.4389   -3.6228 C   0  0  0  0  0  0
   -3.7269   -0.2629   -3.5982 C   0  0  0  0  0  0
    2.1948   -0.9088    0.7608 N   0  0  0  0  0  0
    2.1473    0.1911   -1.2066 O   0  0  0  0  0  0
    3.6470   -0.9598    0.9061 C   0  0  0  0  0  0
    4.2477    0.3698    1.1122 C   0  0  0  0  0  0
    4.7195    1.4136    1.2748 N   0  0  0  0  0  0
   -3.5051   -3.1095    0.8793 C   0  0  0  0  0  0
   -4.0439   -3.9017   -0.1435 C   0  0  0  0  0  0
   -5.3386   -3.6840   -0.6092 C   0  0  0  0  0  0
   -6.1125   -2.6658   -0.0602 C   0  0  0  0  0  0
   -5.5911   -1.8706    0.9574 C   0  0  0  0  0  0
   -4.2970   -2.0854    1.4377 C   0  0  0  0  0  0
   -3.7441   -1.0478    2.7066 Cl  0  0  0  0  0  0
   -1.6356   -0.5474    1.1097 H   0  0  0  0  0  0
   -0.1684   -0.8622    1.9490 H   0  0  0  0  0  0
   -0.2454    0.7760   -0.2913 H   0  0  0  0  0  0
    0.0128   -0.9647   -2.3287 H   0  0  0  0  0  0
   -1.4223   -3.1066   -1.3770 H   0  0  0  0  0  0
    0.3875   -2.9537   -1.1666 H   0  0  0  0  0  0
   -1.8680   -1.4274   -4.9824 H   0  0  0  0  0  0
   -0.8812   -2.1948   -3.8056 H   0  0  0  0  0  0
   -2.6472   -3.8131   -4.6587 H   0  0  0  0  0  0
   -3.0683   -3.4577   -3.0093 H   0  0  0  0  0  0
   -5.6890   -1.1033   -4.0133 H   0  0  0  0  0  0
   -4.9241   -1.7964   -2.6121 H   0  0  0  0  0  0
   -4.0602    0.6403   -3.0848 H   0  0  0  0  0  0
   -3.5279    0.0573   -4.6218 H   0  0  0  0  0  0
    1.6531   -1.2703    1.5323 H   0  0  0  0  0  0
    3.8951   -1.5794    1.7677 H   0  0  0  0  0  0
    4.1085   -1.4239    0.0329 H   0  0  0  0  0  0
   -3.4629   -4.6949   -0.5899 H   0  0  0  0  0  0
   -5.7393   -4.3007   -1.4002 H   0  0  0  0  0  0
   -7.1146   -2.4919   -0.4235 H   0  0  0  0  0  0
   -6.1991   -1.0822    1.3772 H   0  0  0  0  0  0
  1  2  2  0  0  0
  1  3  2  0  0  0
  1  4  1  0  0  0
  1 23  1  0  0  0
  4  5  1  0  0  0
  4  8  1  0  0  0
  5  6  1  0  0  0
  5 30  1  0  0  0
  5 31  1  0  0  0
  6  7  1  0  0  0
  6  9  1  0  0  0
  6 32  1  0  0  0
  7  8  1  0  0  0
  7 10  1  0  0  0
  7 33  1  0  0  0
  8 34  1  0  0  0
  8 35  1  0  0  0
  9 18  1  0  0  0
  9 19  2  0  0  0
 10 11  2  0  0  0
 10 12  1  0  0  0
 12 13  1  0  0  0
 12 17  1  0  0  0
 13 14  1  0  0  0
 13 36  1  0  0  0
 13 37  1  0  0  0
 14 15  1  0  0  0
 14 38  1  0  0  0
 14 39  1  0  0  0
 15 16  1  0  0  0
 16 17  1  0  0  0
 16 40  1  0  0  0
 16 41  1  0  0  0
 17 42  1  0  0  0
 17 43  1  0  0  0
 18 20  1  0  0  0
 18 44  1  0  0  0
 20 21  1  0  0  0
 20 45  1  0  0  0
 20 46  1  0  0  0
 21 22  3  0  0  0
 23 24  2  0  0  0
 23 28  1  0  0  0
 24 25  1  0  0  0
 24 47  1  0  0  0
 25 26  2  0  0  0
 25 48  1  0  0  0
 26 27  1  0  0  0
 26 49  1  0  0  0
 27 28  2  0  0  0
 27 50  1  0  0  0
 28 29  1  0  0  0
M  END
> <chembl_id>
CHEMBL3093944

> <chembl_pref_name>
None

> <i_m_ct_stereo_status>
1

> <s_m_source_file>
sdf/inactives_sanitized.sdf

> <i_m_source_file_index>
583

> <i_lp_mmshare_version>
49012

> <i_f3d_flags>
0

> <s_epik_input>
Q2xjMVtjSF1bY0hdW2NIXVtjSF1jMVMoPU8pKD1PKU4yW0NIMl1bQ0BASF0oQyg9TylbTkhdW0NIMl1DI04pW0NAQEhdKFtDSDJdMilDKD1PKU4zW0NIMl1bQ0gyXU9bQ0gyXVtDSDJdMw==

> <s_epik_cmdline>
J2VwaWtfcHl0aG9uJywgJy1waHQnLCAnMC41JywgJy1waCcsICc3LjUnLCAnLW50JywgJy1tYScsICcyMDAnLCAnLWltYWUnLCAnPGluZmlsZS5tYWU+JywgJy1vbWFlJywgJzxvdXRmaWxlLm1hZT4n

> <r_lp_tautomer_probability>
1

> <r_epik_Ionization_Penalty>
  0.0000

> <r_epik_Ionization_Penalty_Charging>
  0.0000

> <r_epik_Ionization_Penalty_Neutral>
  0.0000

> <r_epik_State_Penalty>
 -0.0000

> <r_epik_Charging_Adjusted_Penalty>
0

> <i_epik_Tot_Q>
0

> <i_epik_Tot_abs_Q>
0

> <s_lp_Force_Field>
OPLS3e

> <r_lp_Energy>
-0.108088

> <b_lp_Chiralities_Consistent>
1

> <s_lp_Variant>
sdf/inactives_sanitized.sdf:583-1

$$$$
sdf/inactives_sanitized.sdf:584
                    3D
 Schrodinger Suite 2020-1.
 62 64  0  0  1  0            999 V2000
   -0.7674    2.0834   -1.2363 C   0  0  0  0  0  0
   -1.1698    3.4227   -1.3083 C   0  0  0  0  0  0
   -1.2793    4.1598   -0.1227 C   0  0  0  0  0  0
   -0.9829    3.5728    1.1075 C   0  0  0  0  0  0
   -0.5686    2.2433    1.1656 C   0  0  0  0  0  0
   -0.4576    1.4921   -0.0070 C   0  0  0  0  0  0
    0.0366    0.0501    0.0464 C   0  0  0  0  0  0
    1.5863   -0.0483    0.0463 C   0  0  2  0  0  0
    2.1809    0.6007   -1.1284 N   0  0  0  0  0  0
    2.0371   -1.5202    0.1021 C   0  0  0  0  0  0
    1.9098   -2.2402   -0.8902 O   0  0  0  0  0  0
    2.5184   -1.9535    1.2792 N   0  0  0  0  0  0
    3.0308   -3.3016    1.5033 C   0  0  0  0  0  0
    4.2589   -3.5807    0.7376 C   0  0  0  0  0  0
    5.2234   -3.7994    0.1369 N   0  0  0  0  0  0
    2.7890    1.8010   -1.1402 C   0  0  0  0  0  0
    2.9551    2.5036   -0.1419 O   0  0  0  0  0  0
    3.2119    2.2246   -2.4538 C   0  0  0  0  0  0
   -1.4648    4.0519   -2.6307 C   0  0  0  0  0  0
   -2.0908    5.2835   -2.8987 C   0  0  0  0  0  0
   -2.2013    5.5521   -4.1799 N   0  0  0  0  0  0
   -1.6570    4.4944   -4.7891 N   0  0  0  0  0  0
   -1.1834    3.5648   -3.9013 C   0  0  0  0  0  0
   -1.5970    4.4609   -6.2396 C   0  0  0  0  0  0
    2.6926    1.8964   -3.7017 C   0  0  0  0  0  0
    3.3625    2.6713   -4.6607 C   0  0  0  0  0  0
    4.2235    3.4682   -4.0601 N   0  0  0  0  0  0
    4.1303    3.2127   -2.7468 N   0  0  0  0  0  0
    4.9482    4.0060   -1.8348 C   0  0  0  0  0  0
    3.1675    2.6725   -6.1854 C   0  0  0  0  0  0
    3.4547    1.2561   -6.7336 C   0  0  0  0  0  0
    4.1042    3.6772   -6.9071 C   0  0  0  0  0  0
    1.7044    3.0527   -6.5046 C   0  0  0  0  0  0
   -0.6702    1.4993   -2.1400 H   0  0  0  0  0  0
   -1.5869    5.1949   -0.1453 H   0  0  0  0  0  0
   -1.0664    4.1521    2.0152 H   0  0  0  0  0  0
   -0.3265    1.8011    2.1210 H   0  0  0  0  0  0
   -0.3944   -0.4993   -0.7936 H   0  0  0  0  0  0
   -0.3871   -0.4293    0.9311 H   0  0  0  0  0  0
    1.9402    0.4500    0.9522 H   0  0  0  0  0  0
    2.1175    0.0775   -1.9895 H   0  0  0  0  0  0
    2.6058   -1.3006    2.0446 H   0  0  0  0  0  0
    3.2605   -3.4215    2.5620 H   0  0  0  0  0  0
    2.2785   -4.0512    1.2516 H   0  0  0  0  0  0
   -2.4628    5.9759   -2.1581 H   0  0  0  0  0  0
   -0.7032    2.6602   -4.2444 H   0  0  0  0  0  0
   -1.2790    3.4738   -6.5764 H   0  0  0  0  0  0
   -0.8834    5.2078   -6.5896 H   0  0  0  0  0  0
   -2.5831    4.6754   -6.6543 H   0  0  0  0  0  0
    1.9084    1.1810   -3.9021 H   0  0  0  0  0  0
    5.3803    3.3571   -1.0728 H   0  0  0  0  0  0
    4.3226    4.7606   -1.3575 H   0  0  0  0  0  0
    5.7610    4.5005   -2.3701 H   0  0  0  0  0  0
    3.3088    1.2030   -7.8135 H   0  0  0  0  0  0
    2.8025    0.5078   -6.2810 H   0  0  0  0  0  0
    4.4813    0.9503   -6.5259 H   0  0  0  0  0  0
    5.1550    3.4525   -6.7179 H   0  0  0  0  0  0
    3.9297    4.7007   -6.5716 H   0  0  0  0  0  0
    3.9586    3.6607   -7.9882 H   0  0  0  0  0  0
    1.5142    3.0687   -7.5787 H   0  0  0  0  0  0
    1.4577    4.0408   -6.1129 H   0  0  0  0  0  0
    0.9988    2.3493   -6.0604 H   0  0  0  0  0  0
  1  6  2  0  0  0
  1  2  1  0  0  0
  1 34  1  0  0  0
  2  3  2  0  0  0
  2 19  1  0  0  0
  3  4  1  0  0  0
  3 35  1  0  0  0
  4  5  2  0  0  0
  4 36  1  0  0  0
  5  6  1  0  0  0
  5 37  1  0  0  0
  6  7  1  0  0  0
  7  8  1  0  0  0
  7 38  1  0  0  0
  7 39  1  0  0  0
  8  9  1  0  0  0
  8 10  1  0  0  0
  8 40  1  0  0  0
  9 16  1  0  0  0
  9 41  1  0  0  0
 10 11  2  0  0  0
 10 12  1  0  0  0
 12 13  1  0  0  0
 12 42  1  0  0  0
 13 14  1  0  0  0
 13 43  1  0  0  0
 13 44  1  0  0  0
 14 15  3  0  0  0
 16 17  2  0  0  0
 16 18  1  0  0  0
 18 25  2  0  0  0
 18 28  1  0  0  0
 19 20  1  0  0  0
 19 23  2  0  0  0
 20 21  2  0  0  0
 20 45  1  0  0  0
 21 22  1  0  0  0
 22 23  1  0  0  0
 22 24  1  0  0  0
 23 46  1  0  0  0
 24 47  1  0  0  0
 24 48  1  0  0  0
 24 49  1  0  0  0
 25 26  1  0  0  0
 25 50  1  0  0  0
 26 27  2  0  0  0
 26 30  1  0  0  0
 27 28  1  0  0  0
 28 29  1  0  0  0
 29 51  1  0  0  0
 29 52  1  0  0  0
 29 53  1  0  0  0
 30 31  1  0  0  0
 30 32  1  0  0  0
 30 33  1  0  0  0
 31 54  1  0  0  0
 31 55  1  0  0  0
 31 56  1  0  0  0
 32 57  1  0  0  0
 32 58  1  0  0  0
 32 59  1  0  0  0
 33 60  1  0  0  0
 33 61  1  0  0  0
 33 62  1  0  0  0
M  END
> <chembl_id>
CHEMBL563471

> <chembl_pref_name>
None

> <i_m_ct_stereo_status>
1

> <s_m_source_file>
sdf/inactives_sanitized.sdf

> <i_m_source_file_index>
584

> <i_lp_mmshare_version>
49012

> <i_f3d_flags>
0

> <s_epik_input>
W2NIXTFuKFtDSDNdKW5bY0hdYzEtYzJbY0hdYyhbY0hdW2NIXVtjSF0yKVtDSDJdW0NAQEhdKEMoPU8pW05IXVtDSDJdQyNOKVtOSF1DKD1PKWMzW2NIXWMoQyhbQ0gzXSkoW0NIM10pW0NIM10pbm4zW0NIM10=

> <s_epik_cmdline>
J2VwaWtfcHl0aG9uJywgJy1waHQnLCAnMC41JywgJy1waCcsICc3LjUnLCAnLW50JywgJy1tYScsICcyMDAnLCAnLWltYWUnLCAnPGluZmlsZS5tYWU+JywgJy1vbWFlJywgJzxvdXRmaWxlLm1hZT4n

> <r_lp_tautomer_probability>
1

> <r_epik_Ionization_Penalty>
  0.0001

> <r_epik_Ionization_Penalty_Charging>
  0.0000

> <r_epik_Ionization_Penalty_Neutral>
  0.0001

> <r_epik_State_Penalty>
 -0.0000

> <r_epik_Charging_Adjusted_Penalty>
0

> <i_epik_Tot_Q>
0

> <i_epik_Tot_abs_Q>
0

> <s_lp_Force_Field>
OPLS3e

> <r_lp_Energy>
19.357985

> <b_lp_Chiralities_Consistent>
1

> <s_lp_Variant>
sdf/inactives_sanitized.sdf:584-1

$$$$
sdf/inactives_sanitized.sdf:585
                    3D
 Schrodinger Suite 2020-1.
 43 43  0  0  1  0            999 V2000
    1.9767    0.2935    1.2318 N   0  0  0  0  0  0
    2.0264    0.5770   -1.1484 N   0  0  0  0  0  0
    4.0573    0.1140    0.0498 N   0  0  0  0  0  0
   -0.0395    0.7454    0.0572 N   0  0  0  0  0  0
    4.0447   -0.1723    2.3635 N   0  0  0  0  0  0
    4.1317    0.3738   -2.2699 N   0  0  0  0  0  0
   -1.4056    0.6732    2.1573 N   0  0  0  0  0  0
    1.3610    0.5350    0.0409 C   0  0  0  0  0  0
    3.3199    0.0892    1.1882 C   0  0  0  0  0  0
    3.3681    0.3574   -1.0927 C   0  0  0  0  0  0
    3.5076   -0.2724    3.7283 C   0  0  0  0  0  0
   -0.7523    0.6964    1.2021 C   0  0  0  0  0  0
   -0.7740    1.0069   -1.1836 C   0  0  0  0  0  0
    3.5540    0.5880   -3.5958 C   0  0  0  0  0  0
    4.6849   -0.5809    4.6795 C   0  0  0  0  0  0
    2.4772   -1.4224    3.8536 C   0  0  0  0  0  0
    2.8572    1.0569    4.1860 C   0  0  0  0  0  0
   -1.1431   -0.2732   -1.9481 C   0  0  0  0  0  0
    2.8279   -0.6656   -4.1205 C   0  0  0  0  0  0
    4.6270    1.0612   -4.5892 C   0  0  0  0  0  0
    5.0390   -0.3129    2.2618 H   0  0  0  0  0  0
    5.1269    0.2184   -2.2019 H   0  0  0  0  0  0
   -1.6898    1.5502   -0.9443 H   0  0  0  0  0  0
   -0.2004    1.6738   -1.8288 H   0  0  0  0  0  0
    2.8177    1.3894   -3.5137 H   0  0  0  0  0  0
    4.3546   -0.6676    5.7157 H   0  0  0  0  0  0
    5.4443    0.2022    4.6486 H   0  0  0  0  0  0
    5.1770   -1.5200    4.4199 H   0  0  0  0  0  0
    2.8913   -2.3703    3.5070 H   0  0  0  0  0  0
    1.5678   -1.2379    3.2827 H   0  0  0  0  0  0
    2.1668   -1.5657    4.8897 H   0  0  0  0  0  0
    2.5648    1.0144    5.2363 H   0  0  0  0  0  0
    1.9550    1.2993    3.6255 H   0  0  0  0  0  0
    3.5439    1.8975    4.0768 H   0  0  0  0  0  0
   -1.6962   -0.0328   -2.8562 H   0  0  0  0  0  0
   -1.7710   -0.9288   -1.3438 H   0  0  0  0  0  0
   -0.2561   -0.8342   -2.2439 H   0  0  0  0  0  0
    2.3795   -0.4801   -5.0970 H   0  0  0  0  0  0
    2.0233   -0.9747   -3.4532 H   0  0  0  0  0  0
    3.5108   -1.5098   -4.2233 H   0  0  0  0  0  0
    4.1945    1.2657   -5.5693 H   0  0  0  0  0  0
    5.4106    0.3137   -4.7214 H   0  0  0  0  0  0
    5.1026    1.9817   -4.2483 H   0  0  0  0  0  0
  1  8  2  0  0  0
  1  9  1  0  0  0
  2  8  1  0  0  0
  2 10  2  0  0  0
  3  9  2  0  0  0
  3 10  1  0  0  0
  4  8  1  0  0  0
  4 12  1  0  0  0
  4 13  1  0  0  0
  5  9  1  0  0  0
  5 11  1  0  0  0
  5 21  1  0  0  0
  6 10  1  0  0  0
  6 14  1  0  0  0
  6 22  1  0  0  0
  7 12  3  0  0  0
 11 15  1  0  0  0
 11 16  1  0  0  0
 11 17  1  0  0  0
 13 18  1  0  0  0
 13 23  1  0  0  0
 13 24  1  0  0  0
 14 19  1  0  0  0
 14 20  1  0  0  0
 14 25  1  0  0  0
 15 26  1  0  0  0
 15 27  1  0  0  0
 15 28  1  0  0  0
 16 29  1  0  0  0
 16 30  1  0  0  0
 16 31  1  0  0  0
 17 32  1  0  0  0
 17 33  1  0  0  0
 17 34  1  0  0  0
 18 35  1  0  0  0
 18 36  1  0  0  0
 18 37  1  0  0  0
 19 38  1  0  0  0
 19 39  1  0  0  0
 19 40  1  0  0  0
 20 41  1  0  0  0
 20 42  1  0  0  0
 20 43  1  0  0  0
M  END
> <chembl_id>
CHEMBL1526900

> <chembl_pref_name>
None

> <s_m_source_file>
sdf/inactives_sanitized.sdf

> <i_m_source_file_index>
585

> <i_lp_mmshare_version>
49012

> <i_m_ct_stereo_status>
1

> <i_f3d_flags>
0

> <s_epik_input>
TiNDTihbQ0gyXVtDSDNdKWMxbmMoW05IXUMoW0NIM10pKFtDSDNdKVtDSDNdKW5jKG4xKVtOSF1bQ0hdKFtDSDNdKVtDSDNd

> <s_epik_cmdline>
J2VwaWtfcHl0aG9uJywgJy1waHQnLCAnMC41JywgJy1waCcsICc3LjUnLCAnLW50JywgJy1tYScsICcyMDAnLCAnLWltYWUnLCAnPGluZmlsZS5tYWU+JywgJy1vbWFlJywgJzxvdXRmaWxlLm1hZT4n

> <r_lp_tautomer_probability>
1

> <r_epik_Ionization_Penalty>
  0.0098

> <r_epik_Ionization_Penalty_Charging>
  0.0000

> <r_epik_Ionization_Penalty_Neutral>
  0.0098

> <r_epik_State_Penalty>
 -0.0000

> <r_epik_Charging_Adjusted_Penalty>
0

> <i_epik_Tot_Q>
0

> <i_epik_Tot_abs_Q>
0

> <s_lp_Force_Field>
OPLS3e

> <r_lp_Energy>
-0.2665

> <b_lp_Chiralities_Consistent>
1

> <s_lp_Variant>
sdf/inactives_sanitized.sdf:585-1

$$$$
sdf/inactives_sanitized.sdf:586
                    3D
 Schrodinger Suite 2020-1.
 59 62  0  0  1  0            999 V2000
   -5.0698    0.8231    0.7687 N   0  0  0  0  0  0
   -4.4251   -0.2111    0.1579 C   0  0  0  0  0  0
   -5.1009   -1.2397   -0.5194 C   0  0  0  0  0  0
   -6.4246    0.8868    0.7471 C   0  0  0  0  0  0
   -7.4968   -1.9444   -1.0733 N   0  0  0  0  0  0
   -8.6865   -1.3376   -0.7358 C   0  0  0  0  0  0
   -8.5502   -0.2361   -0.0441 N   0  0  0  0  0  0
   -7.1925   -0.0964    0.1007 C   0  0  0  0  0  0
   -6.4985   -1.1589   -0.5328 C   0  0  0  0  0  0
   -7.0051    2.0318    1.4326 C   0  0  0  0  0  0
   -7.4674    2.9422    1.9775 N   0  0  0  0  0  0
   -2.9319   -0.1816    0.2338 C   0  0  0  0  0  0
   -2.2225    1.0285    0.2303 C   0  0  0  0  0  0
   -0.8224    1.0645    0.2901 C   0  0  0  0  0  0
   -0.1020   -0.1398    0.3526 C   0  0  0  0  0  0
   -0.8055   -1.3532    0.3691 C   0  0  0  0  0  0
   -2.1963   -1.3700    0.3084 C   0  0  0  0  0  0
   -0.0836    2.4075    0.2772 C   0  0  0  0  0  0
    0.6583    2.5260    1.3791 F   0  0  0  0  0  0
    0.7197    2.4679   -0.7858 F   0  0  0  0  0  0
   -0.9114    3.4532    0.2257 F   0  0  0  0  0  0
   -7.3341   -3.1804   -1.8189 C   0  0  0  0  0  0
    1.2775   -0.0686    0.4130 O   0  0  0  0  0  0
    2.0532   -1.2147    0.0708 C   0  0  0  0  0  0
    3.4986   -0.7760   -0.2257 C   0  0  0  0  0  0
    3.6357    0.3114   -1.3162 C   0  0  0  0  0  0
    3.0166   -0.0584   -2.5970 N   0  0  1  0  0  0
    2.8849    1.0687   -3.5295 C   0  0  0  0  0  0
    4.2452    1.4902   -4.1363 C   0  0  0  0  0  0
    4.8622    0.2689   -4.8552 N   0  3  0  0  0  0
    4.9973   -0.9134   -3.8688 C   0  0  0  0  0  0
    3.5987   -1.2217   -3.2830 C   0  0  0  0  0  0
    6.2309    0.6312   -5.4632 C   0  0  0  0  0  0
   -4.5755   -2.0450   -1.0115 H   0  0  0  0  0  0
   -9.6229   -1.7797   -1.0446 H   0  0  0  0  0  0
   -2.7738    1.9556    0.1707 H   0  0  0  0  0  0
   -0.2862   -2.2971    0.4360 H   0  0  0  0  0  0
   -2.7012   -2.3247    0.3301 H   0  0  0  0  0  0
   -6.6746   -3.0038   -2.6693 H   0  0  0  0  0  0
   -8.2998   -3.5352   -2.1811 H   0  0  0  0  0  0
   -6.8897   -3.9358   -1.1698 H   0  0  0  0  0  0
    2.0404   -1.9277    0.8964 H   0  0  0  0  0  0
    1.6451   -1.7220   -0.8058 H   0  0  0  0  0  0
    3.9288   -0.3791    0.6946 H   0  0  0  0  0  0
    4.1257   -1.6361   -0.4613 H   0  0  0  0  0  0
    3.1468    1.2154   -0.9497 H   0  0  0  0  0  0
    4.6870    0.5639   -1.4557 H   0  0  0  0  0  0
    2.1862    0.7967   -4.3226 H   0  0  0  0  0  0
    2.4309    1.9167   -3.0146 H   0  0  0  0  0  0
    4.1195    2.2605   -4.8983 H   0  0  0  0  0  0
    4.9614    1.8379   -3.3897 H   0  0  0  0  0  0
    5.3792   -1.7534   -4.4506 H   0  0  0  0  0  0
    5.7332   -0.6376   -3.1114 H   0  0  0  0  0  0
    3.6579   -2.0721   -2.6042 H   0  0  0  0  0  0
    2.9220   -1.5357   -4.0797 H   0  0  0  0  0  0
    6.8972    0.9288   -4.6517 H   0  0  0  0  0  0
    6.0635    1.4483   -6.1661 H   0  0  0  0  0  0
    6.5981   -0.2564   -5.9803 H   0  0  0  0  0  0
    4.2329   -0.0109   -5.5947 H   0  0  0  0  0  0
  1  4  2  0  0  0
  1  2  1  0  0  0
  2 12  1  0  0  0
  2  3  2  0  0  0
  3  9  1  0  0  0
  3 34  1  0  0  0
  4  8  1  0  0  0
  4 10  1  0  0  0
  5  6  1  0  0  0
  5  9  1  0  0  0
  5 22  1  0  0  0
  6  7  2  0  0  0
  6 35  1  0  0  0
  7  8  1  0  0  0
  8  9  2  0  0  0
 10 11  3  0  0  0
 12 17  1  0  0  0
 12 13  2  0  0  0
 13 14  1  0  0  0
 13 36  1  0  0  0
 14 18  1  0  0  0
 14 15  2  0  0  0
 15 23  1  0  0  0
 15 16  1  0  0  0
 16 17  2  0  0  0
 16 37  1  0  0  0
 17 38  1  0  0  0
 18 19  1  0  0  0
 18 20  1  0  0  0
 18 21  1  0  0  0
 22 39  1  0  0  0
 22 40  1  0  0  0
 22 41  1  0  0  0
 23 24  1  0  0  0
 24 25  1  0  0  0
 24 42  1  0  0  0
 24 43  1  0  0  0
 25 26  1  0  0  0
 25 44  1  0  0  0
 25 45  1  0  0  0
 26 27  1  0  0  0
 26 46  1  0  0  0
 26 47  1  0  0  0
 27 28  1  0  0  0
 27 32  1  0  0  0
 28 29  1  0  0  0
 28 48  1  0  0  0
 28 49  1  0  0  0
 29 30  1  0  0  0
 29 50  1  0  0  0
 29 51  1  0  0  0
 30 31  1  0  0  0
 30 33  1  0  0  0
 30 59  1  0  0  0
 31 32  1  0  0  0
 31 52  1  0  0  0
 31 53  1  0  0  0
 32 54  1  0  0  0
 32 55  1  0  0  0
 33 56  1  0  0  0
 33 57  1  0  0  0
 33 58  1  0  0  0
M  CHG  1  30   1
M  END
> <chembl_id>
CHEMBL1209144

> <chembl_pref_name>
None

> <s_m_source_file>
sdf/inactives_sanitized.sdf

> <i_m_source_file_index>
586

> <i_lp_mmshare_version>
49012

> <i_m_ct_stereo_status>
1

> <i_f3d_flags>
0

> <s_epik_input>
bjFbY0hdbihbQ0gzXSljKGMxMilbY0hdYyhuYzJDI04pLWMzW2NIXWMoQyhGKShGKUYpYyhbY0hdW2NIXTMpT1tDSDJdW0NIMl1bQ0gyXU40W0NIMl1bQ0gyXU4oW0NIM10pW0NIMl1bQ0gyXTQ=

> <s_epik_cmdline>
J2VwaWtfcHl0aG9uJywgJy1waHQnLCAnMC41JywgJy1waCcsICc3LjUnLCAnLW50JywgJy1tYScsICcyMDAnLCAnLWltYWUnLCAnPGluZmlsZS5tYWU+JywgJy1vbWFlJywgJzxvdXRmaWxlLm1hZT4n

> <r_lp_tautomer_probability>
1

> <r_epik_Ionization_Penalty>
  0.0821

> <r_epik_Ionization_Penalty_Charging>
  0.0819

> <r_epik_Ionization_Penalty_Neutral>
  0.0002

> <r_epik_State_Penalty>
  0.1567

> <r_epik_Charging_Adjusted_Penalty>
0.238597991644111

> <i_epik_Tot_Q>
1

> <i_epik_Tot_abs_Q>
1

> <s_lp_Force_Field>
OPLS3e

> <r_lp_Energy>
56.071792

> <b_lp_Chiralities_Consistent>
1

> <s_lp_Variant>
sdf/inactives_sanitized.sdf:586-1

$$$$
sdf/inactives_sanitized.sdf:587
                    3D
 Schrodinger Suite 2020-1.
 45 47  0  0  1  0            999 V2000
   -0.7061    2.0855   -1.1143 C   0  0  0  0  0  0
   -1.1627    3.4065   -1.1777 C   0  0  0  0  0  0
   -1.4681    4.0747    0.0142 C   0  0  0  0  0  0
   -1.3020    3.4386    1.2445 C   0  0  0  0  0  0
   -0.8195    2.1314    1.2966 C   0  0  0  0  0  0
   -0.5112    1.4495    0.1165 C   0  0  0  0  0  0
    0.0562    0.0330    0.1673 C   0  0  0  0  0  0
    1.6069   -0.0114    0.0459 C   0  0  2  0  0  0
    2.1013    0.6037   -1.1918 N   0  0  0  0  0  0
    2.1173   -1.4626    0.1216 C   0  0  0  0  0  0
    1.8864   -2.2424   -0.8045 O   0  0  0  0  0  0
    2.7685   -1.8113    1.2437 N   0  0  0  0  0  0
    3.3509   -3.1303    1.4718 C   0  0  0  0  0  0
    4.4601   -3.4353    0.5501 C   0  0  0  0  0  0
    5.3309   -3.6745   -0.1734 N   0  0  0  0  0  0
    2.6314    1.8370   -1.3066 C   0  0  0  0  0  0
    2.7874    2.5989   -0.3499 O   0  0  0  0  0  0
    2.9602    2.2843   -2.7115 C   0  0  0  0  0  0
    2.9144    3.6487   -3.0305 C   0  0  0  0  0  0
    3.1971    4.0808   -4.3233 C   0  0  0  0  0  0
    3.5333    3.1515   -5.3036 C   0  0  0  0  0  0
    3.5900    1.7935   -5.0022 C   0  0  0  0  0  0
    3.3044    1.3595   -3.7105 C   0  0  0  0  0  0
   -1.2937    4.0942   -2.4966 C   0  0  0  0  0  0
   -1.7807    5.2864   -2.7508 N   0  0  0  0  0  0
   -1.6498    5.4771   -4.1233 N   0  0  0  0  0  0
   -1.0896    4.3882   -4.5860 C   0  0  0  0  0  0
   -0.8369    3.4746   -3.6169 O   0  0  0  0  0  0
   -0.4653    1.5545   -2.0241 H   0  0  0  0  0  0
   -1.8256    5.0941   -0.0071 H   0  0  0  0  0  0
   -1.5352    3.9644    2.1587 H   0  0  0  0  0  0
   -0.6762    1.6552    2.2557 H   0  0  0  0  0  0
   -0.2757   -0.4474    1.0900 H   0  0  0  0  0  0
   -0.4162   -0.5492   -0.6268 H   0  0  0  0  0  0
    2.0105    0.5352    0.9019 H   0  0  0  0  0  0
    2.0110    0.0350   -2.0212 H   0  0  0  0  0  0
    2.9362   -1.1110    1.9518 H   0  0  0  0  0  0
    2.5926   -3.9100    1.3834 H   0  0  0  0  0  0
    3.7389   -3.1747    2.4894 H   0  0  0  0  0  0
    2.6488    4.3839   -2.2837 H   0  0  0  0  0  0
    3.1543    5.1326   -4.5647 H   0  0  0  0  0  0
    3.7539    3.4876   -6.3061 H   0  0  0  0  0  0
    3.8549    1.0788   -5.7677 H   0  0  0  0  0  0
    3.3572    0.3010   -3.4981 H   0  0  0  0  0  0
   -0.8093    4.1261   -5.5955 H   0  0  0  0  0  0
  1  6  2  0  0  0
  1  2  1  0  0  0
  1 29  1  0  0  0
  2  3  2  0  0  0
  2 24  1  0  0  0
  3  4  1  0  0  0
  3 30  1  0  0  0
  4  5  2  0  0  0
  4 31  1  0  0  0
  5  6  1  0  0  0
  5 32  1  0  0  0
  6  7  1  0  0  0
  7  8  1  0  0  0
  7 33  1  0  0  0
  7 34  1  0  0  0
  8  9  1  0  0  0
  8 10  1  0  0  0
  8 35  1  0  0  0
  9 16  1  0  0  0
  9 36  1  0  0  0
 10 11  2  0  0  0
 10 12  1  0  0  0
 12 13  1  0  0  0
 12 37  1  0  0  0
 13 14  1  0  0  0
 13 38  1  0  0  0
 13 39  1  0  0  0
 14 15  3  0  0  0
 16 17  2  0  0  0
 16 18  1  0  0  0
 18 19  2  0  0  0
 18 23  1  0  0  0
 19 20  1  0  0  0
 19 40  1  0  0  0
 20 21  2  0  0  0
 20 41  1  0  0  0
 21 22  1  0  0  0
 21 42  1  0  0  0
 22 23  2  0  0  0
 22 43  1  0  0  0
 23 44  1  0  0  0
 24 25  2  0  0  0
 24 28  1  0  0  0
 25 26  1  0  0  0
 26 27  2  0  0  0
 27 28  1  0  0  0
 27 45  1  0  0  0
M  END
> <chembl_id>
CHEMBL564626

> <chembl_pref_name>
None

> <i_m_ct_stereo_status>
1

> <s_m_source_file>
sdf/inactives_sanitized.sdf

> <i_m_source_file_index>
587

> <i_lp_mmshare_version>
49012

> <i_f3d_flags>
0

> <s_epik_input>
bzFbY0hdbm5jMS1jMltjSF1jKFtjSF1bY0hdW2NIXTIpW0NIMl1bQ0BASF0oQyg9TylbTkhdW0NIMl1DI04pW05IXUMoPU8pYzNbY0hdW2NIXVtjSF1bY0hdW2NIXTM=

> <s_epik_cmdline>
J2VwaWtfcHl0aG9uJywgJy1waHQnLCAnMC41JywgJy1waCcsICc3LjUnLCAnLW50JywgJy1tYScsICcyMDAnLCAnLWltYWUnLCAnPGluZmlsZS5tYWU+JywgJy1vbWFlJywgJzxvdXRmaWxlLm1hZT4n

> <r_lp_tautomer_probability>
1

> <r_epik_Ionization_Penalty>
  0.0000

> <r_epik_Ionization_Penalty_Charging>
  0.0000

> <r_epik_Ionization_Penalty_Neutral>
  0.0000

> <r_epik_State_Penalty>
 -0.0000

> <r_epik_Charging_Adjusted_Penalty>
0

> <i_epik_Tot_Q>
0

> <i_epik_Tot_abs_Q>
0

> <s_lp_Force_Field>
OPLS3e

> <r_lp_Energy>
28.926516

> <b_lp_Chiralities_Consistent>
1

> <s_lp_Variant>
sdf/inactives_sanitized.sdf:587-1

$$$$
sdf/inactives_sanitized.sdf:588
                    3D
 Schrodinger Suite 2020-1.
 45 47  0  0  1  0            999 V2000
   -0.6938    2.0676   -1.1090 C   0  0  0  0  0  0
   -1.1856    3.3772   -1.1823 C   0  0  0  0  0  0
   -1.5480    4.0220    0.0083 C   0  0  0  0  0  0
   -1.4024    3.3813    1.2386 C   0  0  0  0  0  0
   -0.8849    2.0884    1.2966 C   0  0  0  0  0  0
   -0.5207    1.4257    0.1220 C   0  0  0  0  0  0
    0.0732    0.0199    0.1798 C   0  0  0  0  0  0
    1.6227    0.0038    0.0474 C   0  0  2  0  0  0
    2.0890    0.6184   -1.2015 N   0  0  0  0  0  0
    2.1566   -1.4388    0.1313 C   0  0  0  0  0  0
    1.9641   -2.2201   -0.8025 O   0  0  0  0  0  0
    2.7822   -1.7798    1.2702 N   0  0  0  0  0  0
    3.3802   -3.0894    1.5116 C   0  0  0  0  0  0
    4.5266   -3.3680    0.6282 C   0  0  0  0  0  0
    5.4268   -3.5870   -0.0650 N   0  0  0  0  0  0
    2.7188    1.8040   -1.3172 C   0  0  0  0  0  0
    3.0078    2.5102   -0.3487 O   0  0  0  0  0  0
    3.0006    2.2730   -2.7279 C   0  0  0  0  0  0
    3.2125    3.6377   -2.9741 C   0  0  0  0  0  0
    3.4523    4.0948   -4.2670 C   0  0  0  0  0  0
    3.4865    3.1897   -5.3237 C   0  0  0  0  0  0
    3.2862    1.8310   -5.0980 C   0  0  0  0  0  0
    3.0455    1.3728   -3.8055 C   0  0  0  0  0  0
   -1.3146    4.0805   -2.5002 C   0  0  0  0  0  0
   -2.0148    5.1767   -2.6957 N   0  0  0  0  0  0
   -1.9506    5.6405   -4.0045 N   0  0  0  0  0  0
   -1.1976    4.8843   -4.7624 C   0  0  0  0  0  0
   -0.4945    3.5268   -3.9417 S   0  0  0  0  0  0
   -0.4174    1.5413   -2.0107 H   0  0  0  0  0  0
   -1.9363    5.0300   -0.0110 H   0  0  0  0  0  0
   -1.6814    3.8921    2.1484 H   0  0  0  0  0  0
   -0.7608    1.6081    2.2562 H   0  0  0  0  0  0
   -0.2416   -0.4603    1.1087 H   0  0  0  0  0  0
   -0.3946   -0.5758   -0.6069 H   0  0  0  0  0  0
    2.0183    0.5636    0.8984 H   0  0  0  0  0  0
    1.8971    0.0877   -2.0385 H   0  0  0  0  0  0
    2.9175   -1.0791    1.9848 H   0  0  0  0  0  0
    2.6404   -3.8828    1.3917 H   0  0  0  0  0  0
    3.7322   -3.1334    2.5422 H   0  0  0  0  0  0
    3.1827    4.3580   -2.1686 H   0  0  0  0  0  0
    3.6091    5.1478   -4.4491 H   0  0  0  0  0  0
    3.6717    3.5445   -6.3269 H   0  0  0  0  0  0
    3.3176    1.1341   -5.9226 H   0  0  0  0  0  0
    2.8958    0.3128   -3.6573 H   0  0  0  0  0  0
   -1.0160    5.0730   -5.8100 H   0  0  0  0  0  0
  1  6  2  0  0  0
  1  2  1  0  0  0
  1 29  1  0  0  0
  2  3  2  0  0  0
  2 24  1  0  0  0
  3  4  1  0  0  0
  3 30  1  0  0  0
  4  5  2  0  0  0
  4 31  1  0  0  0
  5  6  1  0  0  0
  5 32  1  0  0  0
  6  7  1  0  0  0
  7  8  1  0  0  0
  7 33  1  0  0  0
  7 34  1  0  0  0
  8  9  1  0  0  0
  8 10  1  0  0  0
  8 35  1  0  0  0
  9 16  1  0  0  0
  9 36  1  0  0  0
 10 11  2  0  0  0
 10 12  1  0  0  0
 12 13  1  0  0  0
 12 37  1  0  0  0
 13 14  1  0  0  0
 13 38  1  0  0  0
 13 39  1  0  0  0
 14 15  3  0  0  0
 16 17  2  0  0  0
 16 18  1  0  0  0
 18 19  2  0  0  0
 18 23  1  0  0  0
 19 20  1  0  0  0
 19 40  1  0  0  0
 20 21  2  0  0  0
 20 41  1  0  0  0
 21 22  1  0  0  0
 21 42  1  0  0  0
 22 23  2  0  0  0
 22 43  1  0  0  0
 23 44  1  0  0  0
 24 25  2  0  0  0
 24 28  1  0  0  0
 25 26  1  0  0  0
 26 27  2  0  0  0
 27 28  1  0  0  0
 27 45  1  0  0  0
M  END
> <chembl_id>
CHEMBL559880

> <chembl_pref_name>
None

> <i_m_ct_stereo_status>
1

> <s_m_source_file>
sdf/inactives_sanitized.sdf

> <i_m_source_file_index>
588

> <i_lp_mmshare_version>
49012

> <i_f3d_flags>
0

> <s_epik_input>
czFbY0hdbm5jMS1jMltjSF1jKFtjSF1bY0hdW2NIXTIpW0NIMl1bQ0BASF0oQyg9TylbTkhdW0NIMl1DI04pW05IXUMoPU8pYzNbY0hdW2NIXVtjSF1bY0hdW2NIXTM=

> <s_epik_cmdline>
J2VwaWtfcHl0aG9uJywgJy1waHQnLCAnMC41JywgJy1waCcsICc3LjUnLCAnLW50JywgJy1tYScsICcyMDAnLCAnLWltYWUnLCAnPGluZmlsZS5tYWU+JywgJy1vbWFlJywgJzxvdXRmaWxlLm1hZT4n

> <r_lp_tautomer_probability>
1

> <r_epik_Ionization_Penalty>
  0.0000

> <r_epik_Ionization_Penalty_Charging>
  0.0000

> <r_epik_Ionization_Penalty_Neutral>
  0.0000

> <r_epik_State_Penalty>
 -0.0000

> <r_epik_Charging_Adjusted_Penalty>
0

> <i_epik_Tot_Q>
0

> <i_epik_Tot_abs_Q>
0

> <s_lp_Force_Field>
OPLS3e

> <r_lp_Energy>
28.904158

> <b_lp_Chiralities_Consistent>
1

> <s_lp_Variant>
sdf/inactives_sanitized.sdf:588-1

$$$$
sdf/inactives_sanitized.sdf:589
                    3D
 Schrodinger Suite 2020-1.
 54 57  0  0  1  0            999 V2000
    3.4625    1.4987   -1.0636 C   0  0  0  0  0  0
    3.9808    2.9062   -0.8593 C   0  0  0  0  0  0
    4.3204    1.8342    0.1432 C   0  0  0  0  0  0
   -3.2553    0.3417    1.3325 S   0  0  0  0  0  0
   -2.8761    1.6196    0.7179 O   0  0  0  0  0  0
   -4.5781   -0.2351    1.0660 O   0  0  0  0  0  0
   -1.9375   -0.9663    0.9085 C   0  0  2  0  0  0
   -0.5234   -0.4486    1.2193 C   0  0  0  0  0  0
   -0.0084    0.1278   -0.1115 C   0  0  2  0  0  0
   -0.6143   -0.8114   -1.1850 C   0  0  1  0  0  0
   -1.9631   -1.2908   -0.5999 C   0  0  0  0  0  0
    1.5333    0.2040   -0.1918 C   0  0  0  0  0  0
   -0.8049   -0.1203   -2.5641 C   0  0  0  0  0  0
   -1.1908    1.0511   -2.5924 O   0  0  0  0  0  0
   -0.5521   -0.8139   -3.7011 N   0  0  0  0  0  0
    2.0374    1.2571   -0.8578 N   0  0  0  0  0  0
    2.2435   -0.6217    0.3843 O   0  0  0  0  0  0
    4.0818    0.6664   -2.1104 C   0  0  0  0  0  0
    4.5668    0.0123   -2.9325 N   0  0  0  0  0  0
   -3.1225    0.5300    3.1105 C   0  0  0  0  0  0
   -2.4378    1.6197    3.6551 C   0  0  0  0  0  0
   -2.3408    1.7541    5.0375 C   0  0  0  0  0  0
   -2.9281    0.8009    5.8673 C   0  0  0  0  0  0
   -3.6116   -0.2873    5.3279 C   0  0  0  0  0  0
   -3.7090   -0.4240    3.9456 C   0  0  0  0  0  0
   -0.1484   -2.2251   -3.7582 C   0  0  0  0  0  0
   -0.3373   -2.5764   -5.2330 C   0  0  0  0  0  0
   -0.0905   -1.2662   -5.9566 C   0  0  0  0  0  0
   -0.7096   -0.2179   -5.0345 C   0  0  0  0  0  0
    4.7694    3.2759   -1.5152 H   0  0  0  0  0  0
    3.2838    3.6909   -0.5632 H   0  0  0  0  0  0
    5.3441    1.4605    0.1816 H   0  0  0  0  0  0
    3.8573    1.8788    1.1296 H   0  0  0  0  0  0
   -2.1963   -1.8292    1.5232 H   0  0  0  0  0  0
   -0.5065    0.2807    2.0292 H   0  0  0  0  0  0
    0.0798   -1.2907    1.5643 H   0  0  0  0  0  0
   -0.3837    1.1528   -0.1616 H   0  0  0  0  0  0
    0.0372   -1.6797   -1.2978 H   0  0  0  0  0  0
   -2.8261   -0.8173   -1.0730 H   0  0  0  0  0  0
   -2.0624   -2.3666   -0.7502 H   0  0  0  0  0  0
    1.4013    1.8517   -1.3693 H   0  0  0  0  0  0
   -1.9798    2.3599    3.0158 H   0  0  0  0  0  0
   -1.8129    2.5940    5.4646 H   0  0  0  0  0  0
   -2.8532    0.9065    6.9396 H   0  0  0  0  0  0
   -4.0644   -1.0206    5.9789 H   0  0  0  0  0  0
   -4.2381   -1.2679    3.5276 H   0  0  0  0  0  0
    0.9055   -2.3215   -3.4924 H   0  0  0  0  0  0
   -0.7763   -2.8675   -3.1393 H   0  0  0  0  0  0
    0.3197   -3.3839   -5.5576 H   0  0  0  0  0  0
   -1.3634   -2.9061   -5.4067 H   0  0  0  0  0  0
    0.9831   -1.0915   -6.0492 H   0  0  0  0  0  0
   -0.5097   -1.2378   -6.9627 H   0  0  0  0  0  0
   -0.1907    0.7371   -5.1291 H   0  0  0  0  0  0
   -1.7705   -0.1035   -5.2617 H   0  0  0  0  0  0
  1  2  1  0  0  0
  1  3  1  0  0  0
  1 16  1  0  0  0
  1 18  1  0  0  0
  2  3  1  0  0  0
  2 30  1  0  0  0
  2 31  1  0  0  0
  3 32  1  0  0  0
  3 33  1  0  0  0
  4  5  2  0  0  0
  4  6  2  0  0  0
  4  7  1  0  0  0
  4 20  1  0  0  0
  7  8  1  0  0  0
  7 11  1  0  0  0
  7 34  1  0  0  0
  8  9  1  0  0  0
  8 35  1  0  0  0
  8 36  1  0  0  0
  9 10  1  0  0  0
  9 12  1  0  0  0
  9 37  1  0  0  0
 10 11  1  0  0  0
 10 13  1  0  0  0
 10 38  1  0  0  0
 11 39  1  0  0  0
 11 40  1  0  0  0
 12 16  1  0  0  0
 12 17  2  0  0  0
 13 14  2  0  0  0
 13 15  1  0  0  0
 15 26  1  0  0  0
 15 29  1  0  0  0
 16 41  1  0  0  0
 18 19  3  0  0  0
 20 21  2  0  0  0
 20 25  1  0  0  0
 21 22  1  0  0  0
 21 42  1  0  0  0
 22 23  2  0  0  0
 22 43  1  0  0  0
 23 24  1  0  0  0
 23 44  1  0  0  0
 24 25  2  0  0  0
 24 45  1  0  0  0
 25 46  1  0  0  0
 26 27  1  0  0  0
 26 47  1  0  0  0
 26 48  1  0  0  0
 27 28  1  0  0  0
 27 49  1  0  0  0
 27 50  1  0  0  0
 28 29  1  0  0  0
 28 51  1  0  0  0
 28 52  1  0  0  0
 29 53  1  0  0  0
 29 54  1  0  0  0
M  END
> <chembl_id>
CHEMBL3093928

> <chembl_pref_name>
None

> <i_m_ct_stereo_status>
1

> <s_m_source_file>
sdf/inactives_sanitized.sdf

> <i_m_source_file_index>
589

> <i_lp_mmshare_version>
49012

> <i_f3d_flags>
0

> <s_epik_input>
W0NIMl0xW0NIMl1bQ0gyXVtDSDJdTjFDKD1PKVtDQEhdKFtDSDJdMilbQ0BIXShDKD1PKVtOSF1DMyhDI04pW0NIMl1bQ0gyXTMpW0NIMl1bQ0BIXTJTKD1PKSg9TyljNFtjSF1bY0hdW2NIXVtjSF1bY0hdNA==

> <s_epik_cmdline>
J2VwaWtfcHl0aG9uJywgJy1waHQnLCAnMC41JywgJy1waCcsICc3LjUnLCAnLW50JywgJy1tYScsICcyMDAnLCAnLWltYWUnLCAnPGluZmlsZS5tYWU+JywgJy1vbWFlJywgJzxvdXRmaWxlLm1hZT4n

> <r_lp_tautomer_probability>
1

> <r_epik_Ionization_Penalty>
  0.0000

> <r_epik_Ionization_Penalty_Charging>
  0.0000

> <r_epik_Ionization_Penalty_Neutral>
  0.0000

> <r_epik_State_Penalty>
 -0.0000

> <r_epik_Charging_Adjusted_Penalty>
0

> <i_epik_Tot_Q>
0

> <i_epik_Tot_abs_Q>
0

> <s_lp_Force_Field>
OPLS3e

> <r_lp_Energy>
23.80209

> <b_lp_Chiralities_Consistent>
1

> <s_lp_Variant>
sdf/inactives_sanitized.sdf:589-1

$$$$
sdf/inactives_sanitized.sdf:590
                    3D
 Schrodinger Suite 2020-1.
 56 59  0  0  1  0            999 V2000
   -1.9428    3.0158   -0.4088 C   0  0  0  0  0  0
   -2.6199    3.6786   -1.4332 C   0  0  0  0  0  0
   -2.5800    1.6465   -2.7553 C   0  0  0  0  0  0
   -2.9217    3.0131   -2.6437 C   0  0  0  0  0  0
   -3.6947    3.6515   -3.7628 C   0  0  0  0  0  0
   -3.7358    2.8313   -5.0551 C   0  0  0  0  0  0
   -3.9315    1.3432   -4.7026 C   0  0  2  0  0  0
   -2.8353    0.9011   -3.8937 O   0  0  0  0  0  0
   -1.5753    1.6841   -0.5600 C   0  0  0  0  0  0
   -1.9140    0.9814   -1.7187 C   0  0  0  0  0  0
   -1.4784   -0.4136   -1.8126 C   0  0  0  0  0  0
   -0.6247   -0.9275   -0.9171 C   0  0  0  0  0  0
   -0.0586   -0.0655    0.2204 C   0  0  1  0  0  0
   -0.9031    1.0850    0.4962 O   0  0  0  0  0  0
   -2.9473    4.9932   -1.2097 O   0  0  0  0  0  0
   -4.2573    4.7407   -3.6556 O   0  0  0  0  0  0
   -0.1015   -0.9053    1.5108 C   0  0  0  0  0  0
    1.3827    0.3987   -0.1353 C   0  0  0  0  0  0
    1.5331    1.3317   -1.3562 C   0  0  0  0  0  0
    2.9830    1.6287   -1.7047 C   0  0  0  0  0  0
    3.7013    1.1407   -2.7397 C   0  0  0  0  0  0
    5.1440    1.5615   -2.9644 C   0  0  0  0  0  0
    3.1831    0.1360   -3.7601 C   0  0  0  0  0  0
   -4.0437    0.4737   -5.9514 C   0  0  0  0  0  0
   -5.2816   -0.0545   -6.3316 C   0  0  0  0  0  0
   -5.3810   -0.8480   -7.4716 C   0  0  0  0  0  0
   -4.2432   -1.1133   -8.2317 C   0  0  0  0  0  0
   -3.0058   -0.5900   -7.8600 C   0  0  0  0  0  0
   -2.9067    0.2041   -6.7206 C   0  0  0  0  0  0
   -4.3425   -1.8941   -9.3526 O   0  0  0  0  0  0
   -1.6964    3.5348    0.5064 H   0  0  0  0  0  0
   -4.5602    3.1664   -5.6855 H   0  0  0  0  0  0
   -2.7736    2.9251   -5.5590 H   0  0  0  0  0  0
   -4.8523    1.2042   -4.1292 H   0  0  0  0  0  0
   -1.8551   -1.0496   -2.6007 H   0  0  0  0  0  0
   -0.3278   -1.9617   -1.0154 H   0  0  0  0  0  0
   -2.6717    5.3046   -0.3448 H   0  0  0  0  0  0
    0.5105   -1.8044    1.4268 H   0  0  0  0  0  0
   -1.1185   -1.2184    1.7520 H   0  0  0  0  0  0
    0.2726   -0.3364    2.3629 H   0  0  0  0  0  0
    1.8142    0.9011    0.7320 H   0  0  0  0  0  0
    2.0043   -0.4849   -0.2923 H   0  0  0  0  0  0
    1.0157    0.9243   -2.2217 H   0  0  0  0  0  0
    1.0652    2.2940   -1.1480 H   0  0  0  0  0  0
    3.4628    2.3247   -1.0315 H   0  0  0  0  0  0
    5.2523    2.0353   -3.9404 H   0  0  0  0  0  0
    5.8051    0.6954   -2.9223 H   0  0  0  0  0  0
    5.4839    2.2737   -2.2113 H   0  0  0  0  0  0
    3.0924    0.6101   -4.7377 H   0  0  0  0  0  0
    2.2118   -0.2834   -3.5049 H   0  0  0  0  0  0
    3.8756   -0.7017   -3.8500 H   0  0  0  0  0  0
   -6.1679    0.1475   -5.7477 H   0  0  0  0  0  0
   -6.3390   -1.2546   -7.7618 H   0  0  0  0  0  0
   -2.1236   -0.7961   -8.4485 H   0  0  0  0  0  0
   -1.9461    0.6082   -6.4349 H   0  0  0  0  0  0
   -3.5028   -2.0128   -9.8021 H   0  0  0  0  0  0
  1  9  2  0  0  0
  1  2  1  0  0  0
  1 31  1  0  0  0
  2 15  1  0  0  0
  2  4  2  0  0  0
  3  8  1  0  0  0
  3 10  2  0  0  0
  3  4  1  0  0  0
  4  5  1  0  0  0
  5 16  2  0  0  0
  5  6  1  0  0  0
  6  7  1  0  0  0
  6 32  1  0  0  0
  6 33  1  0  0  0
  7  8  1  0  0  0
  7 24  1  0  0  0
  7 34  1  0  0  0
  9 10  1  0  0  0
  9 14  1  0  0  0
 10 11  1  0  0  0
 11 12  2  0  0  0
 11 35  1  0  0  0
 12 13  1  0  0  0
 12 36  1  0  0  0
 13 14  1  0  0  0
 13 17  1  0  0  0
 13 18  1  0  0  0
 15 37  1  0  0  0
 17 38  1  0  0  0
 17 39  1  0  0  0
 17 40  1  0  0  0
 18 19  1  0  0  0
 18 41  1  0  0  0
 18 42  1  0  0  0
 19 20  1  0  0  0
 19 43  1  0  0  0
 19 44  1  0  0  0
 20 21  2  3  0  0
 20 45  1  0  0  0
 21 22  1  0  0  0
 21 23  1  0  0  0
 22 46  1  0  0  0
 22 47  1  0  0  0
 22 48  1  0  0  0
 23 49  1  0  0  0
 23 50  1  0  0  0
 23 51  1  0  0  0
 24 25  2  0  0  0
 24 29  1  0  0  0
 25 26  1  0  0  0
 25 52  1  0  0  0
 26 27  2  0  0  0
 26 53  1  0  0  0
 27 28  1  0  0  0
 27 30  1  0  0  0
 28 29  2  0  0  0
 28 54  1  0  0  0
 29 55  1  0  0  0
 30 56  1  0  0  0
M  END
> <chembl_id>
CHEMBL494579

> <chembl_pref_name>
CYCLOALTILISIN 7

> <s_m_source_file>
sdf/inactives_sanitized.sdf

> <i_m_source_file_index>
590

> <i_lp_mmshare_version>
49012

> <i_m_ct_stereo_status>
1

> <i_f3d_flags>
0

> <s_epik_input>
W0NIM11DKFtDSDNdKT1bQ0hdW0NIMl1bQ0gyXVtDQF0oTzEpKFtDSDNdKVtDSF09W0NIXWMyYzFbY0hdYyhbT0hdKWMoYzIzKUMoPU8pW0NIMl1bQ0BIXShPMyljNFtjSF1bY0hdYyhbT0hdKVtjSF1bY0hdNA==

> <s_epik_cmdline>
J2VwaWtfcHl0aG9uJywgJy1waHQnLCAnMC41JywgJy1waCcsICc3LjUnLCAnLW50JywgJy1tYScsICcyMDAnLCAnLWltYWUnLCAnPGluZmlsZS5tYWU+JywgJy1vbWFlJywgJzxvdXRmaWxlLm1hZT4n

> <r_lp_tautomer_probability>
1

> <r_epik_Ionization_Penalty>
  0.0111

> <r_epik_Ionization_Penalty_Charging>
  0.0000

> <r_epik_Ionization_Penalty_Neutral>
  0.0111

> <r_epik_State_Penalty>
 -0.0000

> <r_epik_Charging_Adjusted_Penalty>
0

> <i_epik_Tot_Q>
0

> <i_epik_Tot_abs_Q>
0

> <s_lp_Force_Field>
OPLS3e

> <r_lp_Energy>
20.793583

> <b_lp_Chiralities_Consistent>
1

> <s_lp_Variant>
sdf/inactives_sanitized.sdf:590-1

$$$$
sdf/inactives_sanitized.sdf:591
                    3D
 Schrodinger Suite 2020-1.
 59 63  0  0  1  0            999 V2000
    3.8843    1.4346    0.2327 C   0  0  0  0  0  0
    4.6316    1.3976   -1.0887 C   0  0  0  0  0  0
    4.4133    2.7115   -0.3853 C   0  0  0  0  0  0
   -1.7425   -2.8318    2.0393 S   0  0  0  0  0  0
   -1.7290   -4.2793    1.7977 O   0  0  0  0  0  0
   -1.7125   -2.3243    3.4160 O   0  0  0  0  0  0
   -0.2848   -2.0595    1.0862 C   0  0  2  0  0  0
   -0.1879   -0.5346    1.2806 C   0  0  0  0  0  0
    0.3008    0.0326   -0.0685 C   0  0  2  0  0  0
   -0.3059   -0.9371   -1.1342 C   0  0  1  0  0  0
   -0.3276   -2.3225   -0.4342 C   0  0  0  0  0  0
    1.8521    0.0487   -0.1036 C   0  0  0  0  0  0
   -1.7430   -0.5199   -1.5805 C   0  0  0  0  0  0
   -2.3316    0.3595   -0.9443 O   0  0  0  0  0  0
   -2.2816   -1.0587   -2.7107 N   0  0  0  0  0  0
    2.4406    1.2138    0.2198 N   0  0  0  0  0  0
    2.4942   -0.9286   -0.4935 O   0  0  0  0  0  0
    4.5825    0.8813    1.4067 C   0  0  0  0  0  0
    5.1302    0.4473    2.3290 N   0  0  0  0  0  0
   -3.2305   -2.1852    1.2697 C   0  0  0  0  0  0
   -3.7921   -0.9917    1.7311 C   0  0  0  0  0  0
   -4.9465   -0.4926    1.1336 C   0  0  0  0  0  0
   -5.5385   -1.1919    0.0840 C   0  0  0  0  0  0
   -4.9893   -2.3883   -0.3720 C   0  0  0  0  0  0
   -3.8332   -2.8868    0.2216 C   0  0  0  0  0  0
   -1.8666   -2.0581   -4.9250 C   0  0  2  0  0  0
   -3.5843   -0.5581   -3.2120 C   0  0  0  0  0  0
   -3.5461   -0.5490   -4.7639 C   0  0  2  0  0  0
   -3.2408   -1.8565   -5.2347 O   0  0  0  0  0  0
   -1.7016   -2.2409   -3.3921 C   0  0  0  0  0  0
   -2.3915    0.2484   -5.3921 C   0  0  0  0  0  0
   -1.2607   -0.7697   -5.5041 C   0  0  0  0  0  0
    5.6384    0.9796   -1.1130 H   0  0  0  0  0  0
    4.0782    1.2013   -2.0078 H   0  0  0  0  0  0
    5.2691    3.2038    0.0778 H   0  0  0  0  0  0
    3.7106    3.4224   -0.8217 H   0  0  0  0  0  0
    0.6015   -2.5317    1.5124 H   0  0  0  0  0  0
   -1.1645   -0.1005    1.4899 H   0  0  0  0  0  0
    0.4430   -0.2627    2.1294 H   0  0  0  0  0  0
   -0.0044    1.0649   -0.2561 H   0  0  0  0  0  0
    0.2970   -0.9092   -2.0435 H   0  0  0  0  0  0
   -1.1766   -2.9420   -0.7235 H   0  0  0  0  0  0
    0.5618   -2.8765   -0.7377 H   0  0  0  0  0  0
    1.8702    1.9529    0.6042 H   0  0  0  0  0  0
   -3.3363   -0.4473    2.5451 H   0  0  0  0  0  0
   -5.3804    0.4330    1.4817 H   0  0  0  0  0  0
   -6.4332   -0.8034   -0.3797 H   0  0  0  0  0  0
   -5.4558   -2.9250   -1.1848 H   0  0  0  0  0  0
   -3.4093   -3.8130   -0.1378 H   0  0  0  0  0  0
   -1.4878   -2.9403   -5.4424 H   0  0  0  0  0  0
   -4.4007   -1.1891   -2.8615 H   0  0  0  0  0  0
   -3.7551    0.4812   -2.9264 H   0  0  0  0  0  0
   -4.5107   -0.2212   -5.1531 H   0  0  0  0  0  0
   -2.2101   -3.1499   -3.0694 H   0  0  0  0  0  0
   -0.6282   -2.3374   -3.2405 H   0  0  0  0  0  0
   -2.6711    0.6114   -6.3822 H   0  0  0  0  0  0
   -2.1149    1.1154   -4.7905 H   0  0  0  0  0  0
   -0.3630   -0.4593   -4.9673 H   0  0  0  0  0  0
   -0.9852   -0.9133   -6.5500 H   0  0  0  0  0  0
  1  2  1  0  0  0
  1  3  1  0  0  0
  1 16  1  0  0  0
  1 18  1  0  0  0
  2  3  1  0  0  0
  2 33  1  0  0  0
  2 34  1  0  0  0
  3 35  1  0  0  0
  3 36  1  0  0  0
  4  5  2  0  0  0
  4  6  2  0  0  0
  4  7  1  0  0  0
  4 20  1  0  0  0
  7  8  1  0  0  0
  7 11  1  0  0  0
  7 37  1  0  0  0
  8  9  1  0  0  0
  8 38  1  0  0  0
  8 39  1  0  0  0
  9 10  1  0  0  0
  9 12  1  0  0  0
  9 40  1  0  0  0
 10 11  1  0  0  0
 10 13  1  0  0  0
 10 41  1  0  0  0
 11 42  1  0  0  0
 11 43  1  0  0  0
 12 16  1  0  0  0
 12 17  2  0  0  0
 13 14  2  0  0  0
 13 15  1  0  0  0
 15 27  1  0  0  0
 15 30  1  0  0  0
 16 44  1  0  0  0
 18 19  3  0  0  0
 20 21  2  0  0  0
 20 25  1  0  0  0
 21 22  1  0  0  0
 21 45  1  0  0  0
 22 23  2  0  0  0
 22 46  1  0  0  0
 23 24  1  0  0  0
 23 47  1  0  0  0
 24 25  2  0  0  0
 24 48  1  0  0  0
 25 49  1  0  0  0
 26 29  1  0  0  0
 26 30  1  0  0  0
 26 32  1  0  0  0
 26 50  1  0  0  0
 27 28  1  0  0  0
 27 51  1  0  0  0
 27 52  1  0  0  0
 28 29  1  0  0  0
 28 31  1  0  0  0
 28 53  1  0  0  0
 30 54  1  0  0  0
 30 55  1  0  0  0
 31 32  1  0  0  0
 31 56  1  0  0  0
 31 57  1  0  0  0
 32 58  1  0  0  0
 32 59  1  0  0  0
M  END
> <chembl_id>
CHEMBL3093823

> <chembl_pref_name>
None

> <i_m_ct_stereo_status>
1

> <s_m_source_file>
sdf/inactives_sanitized.sdf

> <i_m_source_file_index>
591

> <i_lp_mmshare_version>
49012

> <i_f3d_flags>
0

> <s_epik_input>
W0NAQEhdMTJPW0NASF0oW0NIMl1bQ0gyXTIpW0NIMl1OKFtDSDJdMSlDKD1PKVtDQEhdKFtDSDJdMylbQ0BIXShDKD1PKVtOSF1DNChDI04pW0NIMl1bQ0gyXTQpW0NIMl1bQ0BIXTNTKD1PKSg9TyljNVtjSF1bY0hdW2NIXVtjSF1bY0hdNQ==

> <s_epik_cmdline>
J2VwaWtfcHl0aG9uJywgJy1waHQnLCAnMC41JywgJy1waCcsICc3LjUnLCAnLW50JywgJy1tYScsICcyMDAnLCAnLWltYWUnLCAnPGluZmlsZS5tYWU+JywgJy1vbWFlJywgJzxvdXRmaWxlLm1hZT4n

> <r_lp_tautomer_probability>
1

> <r_epik_Ionization_Penalty>
  0.0000

> <r_epik_Ionization_Penalty_Charging>
  0.0000

> <r_epik_Ionization_Penalty_Neutral>
  0.0000

> <r_epik_State_Penalty>
 -0.0000

> <r_epik_Charging_Adjusted_Penalty>
0

> <i_epik_Tot_Q>
0

> <i_epik_Tot_abs_Q>
0

> <s_lp_Force_Field>
OPLS3e

> <r_lp_Energy>
27.938267

> <b_lp_Chiralities_Consistent>
1

> <s_lp_Variant>
sdf/inactives_sanitized.sdf:591-1

$$$$
sdf/inactives_sanitized.sdf:592
                    3D
 Schrodinger Suite 2020-1.
 52 54  0  0  1  0            999 V2000
   -0.8819   -0.6662    1.2728 O   0  0  0  0  0  0
   -0.2118    0.0573    0.1872 S   0  0  0  0  0  0
   -0.2683   -0.4603   -1.1848 O   0  0  0  0  0  0
   -2.5963    5.8186   -0.1624 C   0  0  0  0  0  0
   -2.8882    6.2587   -1.4502 C   0  0  0  0  0  0
   -2.6710    5.4291   -2.5466 C   0  0  0  0  0  0
   -2.1567    4.1499   -2.3526 C   0  0  0  0  0  0
   -1.8578    3.6900   -1.0648 C   0  0  0  0  0  0
   -2.0831    4.5386    0.0307 C   0  0  0  0  0  0
   -1.3078    2.3208   -0.9232 C   0  0  0  0  0  0
   -0.8438    1.7427    0.2034 C   0  0  0  0  0  0
    1.6048    0.2858    0.6576 C   0  0  0  0  0  0
    2.4727   -0.9802    0.6357 C   0  0  0  0  0  0
    3.7006   -0.9548    0.0457 N   0  0  0  0  0  0
    2.0022   -1.9984    1.1455 O   0  0  0  0  0  0
    4.4857   -2.1856   -0.1094 C   0  0  0  0  0  0
    5.0221   -2.8369    1.1825 C   0  0  0  0  0  0
    4.5716    0.2259    0.1020 C   0  0  0  0  0  0
    5.2138    0.5156    1.4746 C   0  0  0  0  0  0
    6.0939   -0.6309    2.0434 N   0  3  2  0  0  0
    5.3023   -1.9205    2.3908 C   0  0  0  0  0  0
    6.9058   -0.1011    3.2552 C   0  0  0  0  0  0
    8.0388   -1.0518    3.5945 C   0  0  0  0  0  0
    8.0365   -1.9638    4.6641 C   0  0  0  0  0  0
    9.1987   -2.7157    4.7649 C   0  0  0  0  0  0
   10.3456   -2.3039    3.5386 S   0  0  0  0  0  0
    9.2470   -1.1231    2.9037 C   0  0  0  0  0  0
   -2.7672    6.4676    0.6839 H   0  0  0  0  0  0
   -3.2865    7.2514   -1.5999 H   0  0  0  0  0  0
   -2.8997    5.7766   -3.5434 H   0  0  0  0  0  0
   -1.9911    3.5173   -3.2132 H   0  0  0  0  0  0
   -1.8674    4.2185    1.0391 H   0  0  0  0  0  0
   -1.2901    1.7381   -1.8332 H   0  0  0  0  0  0
   -0.8237    2.2404    1.1608 H   0  0  0  0  0  0
    1.9759    1.0439   -0.0282 H   0  0  0  0  0  0
    1.6219    0.7098    1.6613 H   0  0  0  0  0  0
    3.8059   -2.9214   -0.5440 H   0  0  0  0  0  0
    5.2283   -2.0858   -0.9024 H   0  0  0  0  0  0
    4.2915   -3.5758    1.5143 H   0  0  0  0  0  0
    5.9099   -3.4224    0.9416 H   0  0  0  0  0  0
    5.3147    0.1982   -0.6962 H   0  0  0  0  0  0
    3.9949    1.1139   -0.1473 H   0  0  0  0  0  0
    4.4829    0.7648    2.2462 H   0  0  0  0  0  0
    5.8861    1.3669    1.3603 H   0  0  0  0  0  0
    5.8869   -2.4826    3.1162 H   0  0  0  0  0  0
    4.3936   -1.5806    2.8901 H   0  0  0  0  0  0
    7.3025    0.8709    2.9582 H   0  0  0  0  0  0
    6.1862    0.0516    4.0619 H   0  0  0  0  0  0
    7.2051   -2.0747    5.3451 H   0  0  0  0  0  0
    9.4310   -3.4772    5.4948 H   0  0  0  0  0  0
    9.5392   -0.5358    2.0456 H   0  0  0  0  0  0
    6.7730   -0.8665    1.3332 H   0  0  0  0  0  0
  1  2  2  0  0  0
  2  3  2  0  0  0
  2 11  1  0  0  0
  2 12  1  0  0  0
  4  5  2  0  0  0
  4  9  1  0  0  0
  4 28  1  0  0  0
  5  6  1  0  0  0
  5 29  1  0  0  0
  6  7  2  0  0  0
  6 30  1  0  0  0
  7  8  1  0  0  0
  7 31  1  0  0  0
  8  9  2  0  0  0
  8 10  1  0  0  0
  9 32  1  0  0  0
 10 11  2  0  0  0
 10 33  1  0  0  0
 11 34  1  0  0  0
 12 13  1  0  0  0
 12 35  1  0  0  0
 12 36  1  0  0  0
 13 14  1  0  0  0
 13 15  2  0  0  0
 14 16  1  0  0  0
 14 18  1  0  0  0
 16 17  1  0  0  0
 16 37  1  0  0  0
 16 38  1  0  0  0
 17 21  1  0  0  0
 17 39  1  0  0  0
 17 40  1  0  0  0
 18 19  1  0  0  0
 18 41  1  0  0  0
 18 42  1  0  0  0
 19 20  1  0  0  0
 19 43  1  0  0  0
 19 44  1  0  0  0
 20 21  1  0  0  0
 20 22  1  0  0  0
 20 52  1  0  0  0
 21 45  1  0  0  0
 21 46  1  0  0  0
 22 23  1  0  0  0
 22 47  1  0  0  0
 22 48  1  0  0  0
 23 24  1  0  0  0
 23 27  2  0  0  0
 24 25  2  0  0  0
 24 49  1  0  0  0
 25 26  1  0  0  0
 25 50  1  0  0  0
 26 27  1  0  0  0
 27 51  1  0  0  0
M  CHG  1  20   1
M  END
> <chembl_id>
CHEMBL2316614

> <chembl_pref_name>
None

> <s_m_source_file>
sdf/inactives_sanitized.sdf

> <i_m_source_file_index>
592

> <i_lp_mmshare_version>
49012

> <i_m_ct_stereo_status>
1

> <i_f3d_flags>
0

> <s_epik_input>
W2NIXTFbY0hdW2NIXVtjSF1bY0hdYzEvW0NIXT1bQ0hdL1MoPU8pKD1PKVtDSDJdQyg9TylOMltDSDJdW0NIMl1bQ0gyXU4oW0NIMl1bQ0gyXTIpW0NIMl1jM1tjSF1bY0hdc1tjSF0z

> <s_epik_cmdline>
J2VwaWtfcHl0aG9uJywgJy1waHQnLCAnMC41JywgJy1waCcsICc3LjUnLCAnLW50JywgJy1tYScsICcyMDAnLCAnLWltYWUnLCAnPGluZmlsZS5tYWU+JywgJy1vbWFlJywgJzxvdXRmaWxlLm1hZT4n

> <r_epik_Ionization_Penalty>
  0.1221

> <r_epik_Ionization_Penalty_Charging>
  0.1221

> <r_epik_Ionization_Penalty_Neutral>
  0.0000

> <r_epik_State_Penalty>
  0.1116

> <r_epik_Charging_Adjusted_Penalty>
0.233623475169816

> <i_epik_Tot_Q>
1

> <i_epik_Tot_abs_Q>
1

> <s_lp_Force_Field>
OPLS3e

> <r_lp_Energy>
16.875318

> <b_lp_Chiralities_Consistent>
1

> <s_lp_Variant>
sdf/inactives_sanitized.sdf:592-1

$$$$
sdf/inactives_sanitized.sdf:593
                    3D
 Schrodinger Suite 2020-1.
 45 48  0  0  1  0            999 V2000
   -4.3292    2.5245    1.8372 C   0  0  0  0  0  0
   -5.1944    1.6346    1.1801 C   0  0  0  0  0  0
   -6.1380    0.9125    1.9638 C   0  0  0  0  0  0
   -6.1326    1.0745    3.3545 C   0  0  0  0  0  0
   -5.2471    1.9438    3.9820 C   0  0  0  0  0  0
   -4.3497    2.6788    3.2196 C   0  0  0  0  0  0
   -5.1151    1.3948   -0.3443 C   0  0  1  0  0  0
   -6.5364    1.0339   -0.8389 C   0  0  2  0  0  0
   -7.0184   -0.2675   -0.1741 C   0  0  0  0  0  0
   -7.2117    0.0060    1.3326 C   0  0  0  0  0  0
   -4.8986    2.9061   -1.3348 S   0  0  0  0  0  0
   -5.6660    2.2189   -2.8342 C   0  0  0  0  0  0
   -6.5368    1.0518   -2.3721 C   0  0  0  0  0  0
   -7.1329    0.2704   -3.1113 O   0  0  0  0  0  0
   -4.1471    0.3245   -0.6614 N   0  0  0  0  0  0
   -2.7663    0.3302   -0.3876 C   0  0  0  0  0  0
   -2.1505   -0.9142   -0.2436 C   0  0  0  0  0  0
   -0.7869   -1.0012    0.0204 C   0  0  0  0  0  0
   -0.0130    0.1522    0.1374 C   0  0  0  0  0  0
   -0.6260    1.4040   -0.0208 C   0  0  0  0  0  0
   -1.9901    1.4902   -0.2854 C   0  0  0  0  0  0
    1.3308   -0.0312    0.4012 O   0  0  0  0  0  0
    2.1743    1.1063    0.5554 C   0  0  0  0  0  0
    3.5968    0.6256    0.8557 C   0  0  0  0  0  0
   -3.6177    3.1072    1.2749 H   0  0  0  0  0  0
   -6.8440    0.5300    3.9586 H   0  0  0  0  0  0
   -5.2672    2.0570    5.0558 H   0  0  0  0  0  0
   -3.6662    3.3644    3.6984 H   0  0  0  0  0  0
   -7.2481    1.8196   -0.5755 H   0  0  0  0  0  0
   -7.9843   -0.5750   -0.5781 H   0  0  0  0  0  0
   -6.3257   -1.0953   -0.3322 H   0  0  0  0  0  0
   -8.1745    0.5000    1.4725 H   0  0  0  0  0  0
   -7.2776   -0.9385    1.8744 H   0  0  0  0  0  0
   -6.2574    2.9927   -3.3231 H   0  0  0  0  0  0
   -4.8851    1.8905   -3.5199 H   0  0  0  0  0  0
   -4.5582   -0.5962   -0.7122 H   0  0  0  0  0  0
   -2.7269   -1.8246   -0.3287 H   0  0  0  0  0  0
   -0.3278   -1.9722    0.1354 H   0  0  0  0  0  0
   -0.0605    2.3204    0.0522 H   0  0  0  0  0  0
   -2.4139    2.4701   -0.4206 H   0  0  0  0  0  0
    2.1764    1.7066   -0.3561 H   0  0  0  0  0  0
    1.8204    1.7348    1.3747 H   0  0  0  0  0  0
    4.2743    1.4699    0.9850 H   0  0  0  0  0  0
    3.9830    0.0095    0.0431 H   0  0  0  0  0  0
    3.6263    0.0316    1.7697 H   0  0  0  0  0  0
  1  2  2  0  0  0
  1  6  1  0  0  0
  1 25  1  0  0  0
  2  3  1  0  0  0
  2  7  1  0  0  0
  3  4  2  0  0  0
  3 10  1  0  0  0
  4  5  1  0  0  0
  4 26  1  0  0  0
  5  6  2  0  0  0
  5 27  1  0  0  0
  6 28  1  0  0  0
  7  8  1  0  0  0
  7 11  1  0  0  0
  7 15  1  0  0  0
  8  9  1  0  0  0
  8 13  1  0  0  0
  8 29  1  0  0  0
  9 10  1  0  0  0
  9 30  1  0  0  0
  9 31  1  0  0  0
 10 32  1  0  0  0
 10 33  1  0  0  0
 11 12  1  0  0  0
 12 13  1  0  0  0
 12 34  1  0  0  0
 12 35  1  0  0  0
 13 14  2  0  0  0
 15 16  1  0  0  0
 15 36  1  0  0  0
 16 17  2  0  0  0
 16 21  1  0  0  0
 17 18  1  0  0  0
 17 37  1  0  0  0
 18 19  2  0  0  0
 18 38  1  0  0  0
 19 20  1  0  0  0
 19 22  1  0  0  0
 20 21  2  0  0  0
 20 39  1  0  0  0
 21 40  1  0  0  0
 22 23  1  0  0  0
 23 24  1  0  0  0
 23 41  1  0  0  0
 23 42  1  0  0  0
 24 43  1  0  0  0
 24 44  1  0  0  0
 24 45  1  0  0  0
M  END
> <chembl_id>
CHEMBL2316605

> <chembl_pref_name>
None

> <s_m_source_file>
sdf/inactives_sanitized.sdf

> <i_m_source_file_index>
593

> <i_lp_mmshare_version>
49012

> <i_m_ct_stereo_status>
1

> <i_f3d_flags>
0

> <s_epik_input>
UzFbQ0gyXUMoPU8pW0NASF0yW0NIMl1bQ0gyXWMoW2NIXVtjSF1bY0hdW2NIXTMpYzNbQ0BdMTJbTkhdYzRbY0hdW2NIXWMoW2NIXVtjSF00KU9bQ0gyXVtDSDNd

> <s_epik_cmdline>
J2VwaWtfcHl0aG9uJywgJy1waHQnLCAnMC41JywgJy1waCcsICc3LjUnLCAnLW50JywgJy1tYScsICcyMDAnLCAnLWltYWUnLCAnPGluZmlsZS5tYWU+JywgJy1vbWFlJywgJzxvdXRmaWxlLm1hZT4n

> <r_lp_tautomer_probability>
1

> <r_epik_Ionization_Penalty>
  0.0000

> <r_epik_Ionization_Penalty_Charging>
  0.0000

> <r_epik_Ionization_Penalty_Neutral>
  0.0000

> <r_epik_State_Penalty>
 -0.0000

> <r_epik_Charging_Adjusted_Penalty>
0

> <i_epik_Tot_Q>
0

> <i_epik_Tot_abs_Q>
0

> <s_lp_Force_Field>
OPLS3e

> <r_lp_Energy>
42.486004

> <b_lp_Chiralities_Consistent>
1

> <s_lp_Variant>
sdf/inactives_sanitized.sdf:593-1

$$$$
sdf/inactives_sanitized.sdf:594
                    3D
 Schrodinger Suite 2020-1.
 62 62  0  0  1  0            999 V2000
   -3.1358    3.7393    0.7988 C   0  0  0  0  0  0
   -1.9959    3.0919    0.2032 O   0  0  0  0  0  0
   -2.8443    4.1636    2.2596 C   0  0  0  0  0  0
   -4.3975    2.8439    0.7226 C   0  0  0  0  0  0
   -3.3531    4.9997   -0.0635 C   0  0  0  0  0  0
   -1.4357    1.9294    0.6329 C   0  0  0  0  0  0
   -0.3642    1.6233   -0.1926 N   0  0  0  0  0  0
   -1.8197    1.2644    1.5967 O   0  0  0  0  0  0
    0.4622    0.4169   -0.0337 C   0  0  2  0  0  0
    1.8099    0.6161   -0.7479 C   0  0  0  0  0  0
    2.1153    1.6134   -1.4892 N   0  0  0  0  0  0
   -0.2623   -0.8565   -0.5511 C   0  0  0  0  0  0
    0.4056   -2.1929   -0.1545 C   0  0  0  0  0  0
   -0.4130   -3.4430   -0.5322 C   0  0  0  0  0  0
   -0.5832   -3.6532   -2.0448 C   0  0  0  0  0  0
    3.3836    1.5973   -2.0002 N   0  0  0  0  0  0
    4.1520    2.7083   -1.8326 C   0  0  0  0  0  0
    4.7855    3.2362   -2.7510 O   0  0  0  0  0  0
    4.2875    3.1040   -0.5486 N   0  0  0  0  0  0
    5.0265    4.2841   -0.1061 C   0  0  0  0  0  0
    4.2985    5.6160   -0.3755 C   0  0  0  0  0  0
    4.9997    6.8103    0.2545 C   0  0  0  0  0  0
    4.6846    7.1952    1.5606 C   0  0  0  0  0  0
    5.3289    8.2866    2.1377 C   0  0  0  0  0  0
    6.2859    8.9883    1.4072 C   0  0  0  0  0  0
    6.6051    8.6087    0.1051 C   0  0  0  0  0  0
    5.9615    7.5171   -0.4725 C   0  0  0  0  0  0
    3.6465    0.7088   -3.1492 C   0  0  0  0  0  0
   -3.6516    4.7757    2.6636 H   0  0  0  0  0  0
   -1.9254    4.7478    2.3259 H   0  0  0  0  0  0
   -2.7292    3.3068    2.9235 H   0  0  0  0  0  0
   -4.3131    1.9562    1.3492 H   0  0  0  0  0  0
   -4.5786    2.5018   -0.2971 H   0  0  0  0  0  0
   -5.2875    3.3830    1.0495 H   0  0  0  0  0  0
   -4.2039    5.5854    0.2874 H   0  0  0  0  0  0
   -3.5406    4.7430   -1.1074 H   0  0  0  0  0  0
   -2.4779    5.6512   -0.0471 H   0  0  0  0  0  0
   -0.1532    2.2470   -0.9581 H   0  0  0  0  0  0
    0.6720    0.2910    1.0309 H   0  0  0  0  0  0
    2.5052   -0.1947   -0.5395 H   0  0  0  0  0  0
   -1.2831   -0.8673   -0.1656 H   0  0  0  0  0  0
   -0.3681   -0.8019   -1.6362 H   0  0  0  0  0  0
    1.3960   -2.2673   -0.6051 H   0  0  0  0  0  0
    0.5669   -2.2005    0.9246 H   0  0  0  0  0  0
   -1.3952   -3.3961   -0.0596 H   0  0  0  0  0  0
    0.0767   -4.3226   -0.1121 H   0  0  0  0  0  0
   -1.1126   -4.5845   -2.2484 H   0  0  0  0  0  0
    0.3824   -3.7053   -2.5487 H   0  0  0  0  0  0
   -1.1578   -2.8467   -2.5007 H   0  0  0  0  0  0
    3.8342    2.5620    0.1728 H   0  0  0  0  0  0
    5.1883    4.1861    0.9682 H   0  0  0  0  0  0
    6.0424    4.3096   -0.5054 H   0  0  0  0  0  0
    4.1993    5.7806   -1.4498 H   0  0  0  0  0  0
    3.2739    5.5673   -0.0029 H   0  0  0  0  0  0
    3.9441    6.6504    2.1282 H   0  0  0  0  0  0
    5.0882    8.5874    3.1468 H   0  0  0  0  0  0
    6.7856    9.8346    1.8552 H   0  0  0  0  0  0
    7.3488    9.1576   -0.4536 H   0  0  0  0  0  0
    6.2111    7.2216   -1.4814 H   0  0  0  0  0  0
    4.6882    0.3830   -3.1585 H   0  0  0  0  0  0
    3.4435    1.2195   -4.0921 H   0  0  0  0  0  0
    3.0343   -0.1942   -3.1275 H   0  0  0  0  0  0
  1  4  1  0  0  0
  1  5  1  0  0  0
  1  3  1  0  0  0
  1  2  1  0  0  0
  2  6  1  0  0  0
  3 29  1  0  0  0
  3 30  1  0  0  0
  3 31  1  0  0  0
  4 32  1  0  0  0
  4 33  1  0  0  0
  4 34  1  0  0  0
  5 35  1  0  0  0
  5 36  1  0  0  0
  5 37  1  0  0  0
  6  8  2  0  0  0
  6  7  1  0  0  0
  7  9  1  0  0  0
  7 38  1  0  0  0
  9 10  1  0  0  0
  9 12  1  0  0  0
  9 39  1  0  0  0
 10 11  2  0  0  0
 10 40  1  0  0  0
 11 16  1  0  0  0
 12 13  1  0  0  0
 12 41  1  0  0  0
 12 42  1  0  0  0
 13 14  1  0  0  0
 13 43  1  0  0  0
 13 44  1  0  0  0
 14 15  1  0  0  0
 14 45  1  0  0  0
 14 46  1  0  0  0
 15 47  1  0  0  0
 15 48  1  0  0  0
 15 49  1  0  0  0
 16 17  1  0  0  0
 16 28  1  0  0  0
 17 18  2  0  0  0
 17 19  1  0  0  0
 19 20  1  0  0  0
 19 50  1  0  0  0
 20 21  1  0  0  0
 20 51  1  0  0  0
 20 52  1  0  0  0
 21 22  1  0  0  0
 21 53  1  0  0  0
 21 54  1  0  0  0
 22 23  2  0  0  0
 22 27  1  0  0  0
 23 24  1  0  0  0
 23 55  1  0  0  0
 24 25  2  0  0  0
 24 56  1  0  0  0
 25 26  1  0  0  0
 25 57  1  0  0  0
 26 27  2  0  0  0
 26 58  1  0  0  0
 27 59  1  0  0  0
 28 60  1  0  0  0
 28 61  1  0  0  0
 28 62  1  0  0  0
M  END
> <chembl_id>
CHEMBL203719

> <chembl_pref_name>
None

> <i_m_ct_stereo_status>
1

> <s_m_source_file>
sdf/inactives_sanitized.sdf

> <i_m_source_file_index>
594

> <i_lp_mmshare_version>
49012

> <i_f3d_flags>
0

> <s_epik_input>
W0NIM11DKFtDSDNdKShbQ0gzXSlPQyg9TylbTkhdW0NAQEhdKFtDSDJdW0NIMl1bQ0gyXVtDSDNdKS9bQ0hdPU4vTihbQ0gzXSlDKD1PKVtOSF1bQ0gyXVtDSDJdYzFbY0hdW2NIXVtjSF1bY0hdW2NIXTE=

> <s_epik_cmdline>
J2VwaWtfcHl0aG9uJywgJy1waHQnLCAnMC41JywgJy1waCcsICc3LjUnLCAnLW50JywgJy1tYScsICcyMDAnLCAnLWltYWUnLCAnPGluZmlsZS5tYWU+JywgJy1vbWFlJywgJzxvdXRmaWxlLm1hZT4n

> <r_lp_tautomer_probability>
1

> <r_epik_Ionization_Penalty>
  0.0000

> <r_epik_Ionization_Penalty_Charging>
  0.0000

> <r_epik_Ionization_Penalty_Neutral>
  0.0000

> <r_epik_State_Penalty>
 -0.0000

> <r_epik_Charging_Adjusted_Penalty>
0

> <i_epik_Tot_Q>
0

> <i_epik_Tot_abs_Q>
0

> <s_epik_Chemistry_Notes>
This compound has an ester and may undergo hydrolysis at high or low pH. This compound has an imine and may undergo hydrolysis.

> <s_lp_Force_Field>
OPLS3e

> <r_lp_Energy>
32.844558

> <b_lp_Chiralities_Consistent>
1

> <s_lp_Variant>
sdf/inactives_sanitized.sdf:594-1

$$$$
sdf/inactives_sanitized.sdf:595
                    3D
 Schrodinger Suite 2020-1.
 55 57  0  0  1  0            999 V2000
   -1.2998    3.3727    0.4763 C   0  0  0  0  0  0
   -0.1676    4.1555    1.2483 C   0  0  0  0  0  0
   -0.3155    4.3670    2.7705 C   0  0  0  0  0  0
   -1.7466    4.6396    3.2402 C   0  0  0  0  0  0
   -2.6899    3.5293    2.7711 C   0  0  0  0  0  0
   -2.6709    3.2684    1.2491 C   0  0  0  0  0  0
   -2.7359    7.7836   -1.9823 C   0  0  0  0  0  0
   -2.3921    6.8150   -2.9207 C   0  0  0  0  0  0
   -1.9931    5.5525   -2.4906 C   0  0  0  0  0  0
   -1.9311    5.2454   -1.1291 C   0  0  0  0  0  0
   -2.2844    6.2317   -0.1973 C   0  0  0  0  0  0
   -2.6845    7.4962   -0.6214 C   0  0  0  0  0  0
   -1.5193    3.9544   -0.8352 O   0  0  0  0  0  0
   -0.7744    1.9138    0.3657 C   0  0  0  0  0  0
   -0.5224    1.4416   -0.8699 N   0  0  0  0  0  0
   -0.5855    1.2403    1.3829 O   0  0  0  0  0  0
    0.0079    0.1131   -1.1769 C   0  0  0  0  0  0
    1.5046   -0.0549   -0.8489 C   0  0  0  0  0  0
    2.3752    0.8071   -1.6431 N   0  0  0  0  0  0
    3.7696    0.8101   -1.4666 C   0  0  0  0  0  0
    4.5358    1.5131   -2.3969 C   0  0  0  0  0  0
    5.9219    1.5574   -2.2763 C   0  0  0  0  0  0
    6.5646    0.9013   -1.2266 C   0  0  0  0  0  0
    5.7950    0.1949   -0.2895 C   0  0  0  0  0  0
    4.4084    0.1508   -0.4083 C   0  0  0  0  0  0
    7.9423    1.0000   -1.1888 O   0  0  0  0  0  0
    8.6567    0.3461   -0.1457 C   0  0  0  0  0  0
    0.8431    3.8880    0.9318 H   0  0  0  0  0  0
   -0.2063    5.1836    0.9000 H   0  0  0  0  0  0
    0.0480    3.4700    3.2741 H   0  0  0  0  0  0
    0.3420    5.1728    3.1008 H   0  0  0  0  0  0
   -1.7643    4.6913    4.3295 H   0  0  0  0  0  0
   -2.0905    5.6145    2.9013 H   0  0  0  0  0  0
   -2.4099    2.6038    3.2765 H   0  0  0  0  0  0
   -3.7078    3.7437    3.1002 H   0  0  0  0  0  0
   -3.2853    4.0928    0.8965 H   0  0  0  0  0  0
   -3.2873    2.4236    0.9340 H   0  0  0  0  0  0
   -3.0451    8.7643   -2.3126 H   0  0  0  0  0  0
   -2.4336    7.0413   -3.9761 H   0  0  0  0  0  0
   -1.7269    4.8041   -3.2229 H   0  0  0  0  0  0
   -2.2561    6.0407    0.8580 H   0  0  0  0  0  0
   -2.9535    8.2507    0.1031 H   0  0  0  0  0  0
   -0.6972    2.0484   -1.6580 H   0  0  0  0  0  0
   -0.5785   -0.6566   -0.6716 H   0  0  0  0  0  0
   -0.1461   -0.0500   -2.2443 H   0  0  0  0  0  0
    1.6861    0.0913    0.2167 H   0  0  0  0  0  0
    1.7988   -1.0857   -1.0511 H   0  0  0  0  0  0
    2.0275    1.1100   -2.5416 H   0  0  0  0  0  0
    4.0622    2.0305   -3.2191 H   0  0  0  0  0  0
    6.5020    2.1058   -3.0040 H   0  0  0  0  0  0
    6.2543   -0.3252    0.5371 H   0  0  0  0  0  0
    3.8471   -0.4012    0.3303 H   0  0  0  0  0  0
    9.7239    0.5312   -0.2682 H   0  0  0  0  0  0
    8.5040   -0.7339   -0.1734 H   0  0  0  0  0  0
    8.3671    0.7241    0.8359 H   0  0  0  0  0  0
  1 13  1  0  0  0
  1 14  1  0  0  0
  1  2  1  0  0  0
  1  6  1  0  0  0
  2  3  1  0  0  0
  2 28  1  0  0  0
  2 29  1  0  0  0
  3  4  1  0  0  0
  3 30  1  0  0  0
  3 31  1  0  0  0
  4  5  1  0  0  0
  4 32  1  0  0  0
  4 33  1  0  0  0
  5  6  1  0  0  0
  5 34  1  0  0  0
  5 35  1  0  0  0
  6 36  1  0  0  0
  6 37  1  0  0  0
  7  8  2  0  0  0
  7 12  1  0  0  0
  7 38  1  0  0  0
  8  9  1  0  0  0
  8 39  1  0  0  0
  9 10  2  0  0  0
  9 40  1  0  0  0
 10 11  1  0  0  0
 10 13  1  0  0  0
 11 12  2  0  0  0
 11 41  1  0  0  0
 12 42  1  0  0  0
 14 15  1  0  0  0
 14 16  2  0  0  0
 15 17  1  0  0  0
 15 43  1  0  0  0
 17 18  1  0  0  0
 17 44  1  0  0  0
 17 45  1  0  0  0
 18 19  1  0  0  0
 18 46  1  0  0  0
 18 47  1  0  0  0
 19 20  1  0  0  0
 19 48  1  0  0  0
 20 21  2  0  0  0
 20 25  1  0  0  0
 21 22  1  0  0  0
 21 49  1  0  0  0
 22 23  2  0  0  0
 22 50  1  0  0  0
 23 24  1  0  0  0
 23 26  1  0  0  0
 24 25  2  0  0  0
 24 51  1  0  0  0
 25 52  1  0  0  0
 26 27  1  0  0  0
 27 53  1  0  0  0
 27 54  1  0  0  0
 27 55  1  0  0  0
M  END
> <chembl_id>
CHEMBL203576

> <chembl_pref_name>
None

> <s_m_source_file>
sdf/inactives_sanitized.sdf

> <i_m_source_file_index>
595

> <i_lp_mmshare_version>
49012

> <i_m_ct_stereo_status>
1

> <i_f3d_flags>
0

> <s_epik_input>
W2NIXTFbY0hdW2NIXVtjSF1bY0hdYzFPQzIoW0NIMl1bQ0gyXVtDSDJdW0NIMl1bQ0gyXTIpQyg9TylbTkhdW0NIMl1bQ0gyXVtOSF1jM1tjSF1bY0hdYyhbY0hdW2NIXTMpT1tDSDNd

> <s_epik_cmdline>
J2VwaWtfcHl0aG9uJywgJy1waHQnLCAnMC41JywgJy1waCcsICc3LjUnLCAnLW50JywgJy1tYScsICcyMDAnLCAnLWltYWUnLCAnPGluZmlsZS5tYWU+JywgJy1vbWFlJywgJzxvdXRmaWxlLm1hZT4n

> <r_lp_tautomer_probability>
1

> <r_epik_Ionization_Penalty>
  0.0016

> <r_epik_Ionization_Penalty_Charging>
  0.0000

> <r_epik_Ionization_Penalty_Neutral>
  0.0016

> <r_epik_State_Penalty>
 -0.0000

> <r_epik_Charging_Adjusted_Penalty>
0

> <i_epik_Tot_Q>
0

> <i_epik_Tot_abs_Q>
0

> <s_lp_Force_Field>
OPLS3e

> <r_lp_Energy>
43.059404

> <b_lp_Chiralities_Consistent>
1

> <s_lp_Variant>
sdf/inactives_sanitized.sdf:595-1

$$$$
sdf/inactives_sanitized.sdf:596
                    3D
 Schrodinger Suite 2020-1.
 45 45  0  0  1  0            999 V2000
    2.8454   -0.1616    2.2325 O   0  0  0  0  0  0
    1.1369    0.1407   -1.8400 O   0  0  0  0  0  0
   -4.3252    2.6704   -0.2393 O   0  0  0  0  0  0
    1.5052    1.6995    2.3293 O   0  0  0  0  0  0
    2.9244    1.1310   -0.8034 O   0  0  0  0  0  0
   -0.2692    0.2915    0.5921 N   0  0  0  0  0  0
   -0.2509    2.5728   -0.1526 N   0  0  0  0  0  0
   -2.3330    1.4429    0.1870 N   0  0  0  0  0  0
   -2.3061    3.7303   -0.5726 N   0  0  0  0  0  0
   -0.2082    4.8353   -0.9187 N   0  0  0  0  0  0
   -1.5680   -1.5294    1.7293 N   0  0  0  0  0  0
   -0.9693    1.4689    0.1960 C   0  0  0  0  0  0
    1.1842    0.0570    0.5515 C   0  0  0  0  0  0
   -0.9441    3.6819   -0.5369 C   0  0  0  0  0  0
    1.8423    0.6353    1.8009 C   0  0  0  0  0  0
    1.8531    0.5170   -0.7514 C   0  0  0  0  0  0
   -2.9458    2.5953   -0.2018 C   0  0  0  0  0  0
   -0.9967   -0.6736    1.1990 C   0  0  0  0  0  0
   -0.8925    5.9773   -1.5253 C   0  0  0  0  0  0
    1.2454    4.7603   -1.0746 C   0  0  0  0  0  0
    3.6096    0.1889    3.3786 C   0  0  0  0  0  0
    1.5573    0.4965   -3.1499 C   0  0  0  0  0  0
   -5.0956    1.5314    0.1399 C   0  0  0  0  0  0
    4.6743   -0.8835    3.6287 C   0  0  0  0  0  0
    0.4883    0.0641   -4.1578 C   0  0  0  0  0  0
    1.3277   -1.0249    0.5357 H   0  0  0  0  0  0
   -1.8021    6.2339   -0.9814 H   0  0  0  0  0  0
   -1.1805    5.7372   -2.5491 H   0  0  0  0  0  0
   -0.2559    6.8621   -1.5459 H   0  0  0  0  0  0
    1.4956    4.1927   -1.9716 H   0  0  0  0  0  0
    1.7112    4.2531   -0.2286 H   0  0  0  0  0  0
    1.6938    5.7506   -1.1588 H   0  0  0  0  0  0
    4.0876    1.1579    3.2263 H   0  0  0  0  0  0
    2.9575    0.2767    4.2493 H   0  0  0  0  0  0
    1.7090    1.5754   -3.2149 H   0  0  0  0  0  0
    2.5088    0.0144   -3.3791 H   0  0  0  0  0  0
   -6.1566    1.7672    0.0585 H   0  0  0  0  0  0
   -4.8980    1.2420    1.1734 H   0  0  0  0  0  0
   -4.8934    0.6793   -0.5110 H   0  0  0  0  0  0
    5.2765   -0.6340    4.5023 H   0  0  0  0  0  0
    5.3479   -0.9771    2.7763 H   0  0  0  0  0  0
    4.2187   -1.8581    3.8061 H   0  0  0  0  0  0
    0.7841    0.3293   -5.1729 H   0  0  0  0  0  0
   -0.4661    0.5500   -3.9518 H   0  0  0  0  0  0
    0.3301   -1.0143   -4.1282 H   0  0  0  0  0  0
  1 15  1  0  0  0
  1 21  1  0  0  0
  2 16  1  0  0  0
  2 22  1  0  0  0
  3 17  1  0  0  0
  3 23  1  0  0  0
  4 15  2  0  0  0
  5 16  2  0  0  0
  6 12  1  0  0  0
  6 13  1  0  0  0
  6 18  1  0  0  0
  7 12  2  0  0  0
  7 14  1  0  0  0
  8 12  1  0  0  0
  8 17  2  0  0  0
  9 14  2  0  0  0
  9 17  1  0  0  0
 10 14  1  0  0  0
 10 19  1  0  0  0
 10 20  1  0  0  0
 11 18  3  0  0  0
 13 15  1  0  0  0
 13 16  1  0  0  0
 13 26  1  0  0  0
 19 27  1  0  0  0
 19 28  1  0  0  0
 19 29  1  0  0  0
 20 30  1  0  0  0
 20 31  1  0  0  0
 20 32  1  0  0  0
 21 24  1  0  0  0
 21 33  1  0  0  0
 21 34  1  0  0  0
 22 25  1  0  0  0
 22 35  1  0  0  0
 22 36  1  0  0  0
 23 37  1  0  0  0
 23 38  1  0  0  0
 23 39  1  0  0  0
 24 40  1  0  0  0
 24 41  1  0  0  0
 24 42  1  0  0  0
 25 43  1  0  0  0
 25 44  1  0  0  0
 25 45  1  0  0  0
M  END
> <chembl_id>
CHEMBL1419509

> <chembl_pref_name>
None

> <s_m_source_file>
sdf/inactives_sanitized.sdf

> <i_m_source_file_index>
596

> <i_lp_mmshare_version>
49012

> <i_m_ct_stereo_status>
1

> <i_f3d_flags>
0

> <s_epik_input>
W0NIM11bQ0gyXU9DKD1PKVtDSF0oQyg9TylPW0NIMl1bQ0gzXSlOKEMjTiljMW5jKE4oW0NIM10pW0NIM10pbmMobjEpT1tDSDNd

> <s_epik_cmdline>
J2VwaWtfcHl0aG9uJywgJy1waHQnLCAnMC41JywgJy1waCcsICc3LjUnLCAnLW50JywgJy1tYScsICcyMDAnLCAnLWltYWUnLCAnPGluZmlsZS5tYWU+JywgJy1vbWFlJywgJzxvdXRmaWxlLm1hZT4n

> <r_lp_tautomer_probability>
1

> <r_epik_Ionization_Penalty>
  0.1412

> <r_epik_Ionization_Penalty_Charging>
  0.0000

> <r_epik_Ionization_Penalty_Neutral>
  0.1412

> <r_epik_State_Penalty>
  0.1304

> <r_epik_Charging_Adjusted_Penalty>
0.130361260558436

> <i_epik_Tot_Q>
0

> <i_epik_Tot_abs_Q>
0

> <s_epik_Chemistry_Notes>
This compound has an ester and may undergo hydrolysis at high or low pH.

> <s_lp_Force_Field>
OPLS3e

> <r_lp_Energy>
22.878458

> <b_lp_Chiralities_Consistent>
1

> <s_lp_Variant>
sdf/inactives_sanitized.sdf:596-1

$$$$
sdf/inactives_sanitized.sdf:597
                    3D
 Schrodinger Suite 2020-1.
 24 24  0  0  1  0            999 V2000
   -2.1587    1.2214    0.0040 C   0  0  0  0  0  0
   -2.8270   -0.0071    0.0339 C   0  0  0  0  0  0
   -2.1091   -1.2000    0.0096 C   0  0  0  0  0  0
   -0.7170   -1.1773   -0.0473 C   0  0  0  0  0  0
   -0.0179    0.0389   -0.0798 C   0  0  0  0  0  0
   -0.7588    1.2342   -0.0494 C   0  0  0  0  0  0
   -2.9445    2.5319    0.0298 C   0  0  0  0  0  0
   -2.3032    3.4981   -0.6304 F   0  0  0  0  0  0
   -4.1517    2.3896   -0.5208 F   0  0  0  0  0  0
   -3.1005    2.9167    1.2961 F   0  0  0  0  0  0
    1.4962    0.0366   -0.1383 C   0  0  0  0  0  0
    2.0950    1.2190   -0.3948 N   0  0  0  0  0  0
    3.5383    1.4456   -0.5194 C   0  0  0  0  0  0
    4.0339    0.9822   -1.8936 C   0  0  0  0  0  0
    2.1327   -1.0070    0.0234 O   0  0  0  0  0  0
    5.1627    0.5158   -2.0341 O   0  0  0  0  0  0
   -3.9058   -0.0436    0.0802 H   0  0  0  0  0  0
   -2.6319   -2.1449    0.0354 H   0  0  0  0  0  0
   -0.1887   -2.1201   -0.0665 H   0  0  0  0  0  0
   -0.2542    2.1897   -0.0613 H   0  0  0  0  0  0
    1.5116    2.0396   -0.4694 H   0  0  0  0  0  0
    3.7293    2.5140   -0.4183 H   0  0  0  0  0  0
    4.0892    0.9503    0.2830 H   0  0  0  0  0  0
    3.3447    1.1350   -2.7248 H   0  0  0  0  0  0
  1  6  2  0  0  0
  1  2  1  0  0  0
  1  7  1  0  0  0
  2  3  2  0  0  0
  2 17  1  0  0  0
  3  4  1  0  0  0
  3 18  1  0  0  0
  4  5  2  0  0  0
  4 19  1  0  0  0
  5 11  1  0  0  0
  5  6  1  0  0  0
  6 20  1  0  0  0
  7  9  1  0  0  0
  7 10  1  0  0  0
  7  8  1  0  0  0
 11 12  1  0  0  0
 11 15  2  0  0  0
 12 13  1  0  0  0
 12 21  1  0  0  0
 13 14  1  0  0  0
 13 22  1  0  0  0
 13 23  1  0  0  0
 14 16  2  0  0  0
 14 24  1  0  0  0
M  END
> <chembl_id>
CHEMBL1288587

> <chembl_pref_name>
None

> <s_m_source_file>
sdf/inactives_sanitized.sdf

> <i_m_source_file_index>
597

> <i_lp_mmshare_version>
49012

> <i_m_ct_stereo_status>
1

> <i_f3d_flags>
0

> <s_epik_input>
RkMoRikoRiljMVtjSF1bY0hdW2NIXWMoW2NIXTEpQyg9TylbTkhdW0NIMl1bQ0hdPU8=

> <s_epik_cmdline>
J2VwaWtfcHl0aG9uJywgJy1waHQnLCAnMC41JywgJy1waCcsICc3LjUnLCAnLW50JywgJy1tYScsICcyMDAnLCAnLWltYWUnLCAnPGluZmlsZS5tYWU+JywgJy1vbWFlJywgJzxvdXRmaWxlLm1hZT4n

> <r_lp_tautomer_probability>
1

> <r_epik_Ionization_Penalty>
  0.0002

> <r_epik_Ionization_Penalty_Charging>
  0.0000

> <r_epik_Ionization_Penalty_Neutral>
  0.0002

> <r_epik_State_Penalty>
 -0.0000

> <r_epik_Charging_Adjusted_Penalty>
0

> <i_epik_Tot_Q>
0

> <i_epik_Tot_abs_Q>
0

> <s_lp_Force_Field>
OPLS3e

> <r_lp_Energy>
15.903423

> <b_lp_Chiralities_Consistent>
1

> <s_lp_Variant>
sdf/inactives_sanitized.sdf:597-1

$$$$
sdf/inactives_sanitized.sdf:598
                    3D
 Schrodinger Suite 2020-1.
 29 29  0  0  1  0            999 V2000
   -0.1184    0.4226    0.0927 C   0  0  0  0  0  0
    1.2503    0.4208    0.3819 N   0  0  0  0  0  0
    1.8701   -0.4361    1.3330 N   0  0  1  0  0  0
    2.3991   -1.5133    0.6971 C   0  0  0  0  0  0
    2.8270   -2.4595    0.1853 N   0  0  0  0  0  0
   -0.6367   -0.8376    0.2279 O   0  0  0  0  0  0
   -0.7690    1.4090   -0.2576 O   0  0  0  0  0  0
   -2.0074   -1.2097   -0.0046 C   0  0  0  0  0  0
    2.0965    1.6178    0.2714 C   0  0  0  0  0  0
    2.5858    1.7840    1.7000 C   0  0  0  0  0  0
    2.7977    0.3484    2.1367 C   0  0  0  0  0  0
   -2.4200   -0.9554   -1.4757 C   0  0  0  0  0  0
   -2.9624   -0.4825    0.9740 C   0  0  0  0  0  0
   -2.0418   -2.7254    0.2795 C   0  0  0  0  0  0
    2.9228    1.4025   -0.4093 H   0  0  0  0  0  0
    1.5748    2.5057   -0.0911 H   0  0  0  0  0  0
    3.4922    2.3876    1.7579 H   0  0  0  0  0  0
    1.8372    2.2736    2.3261 H   0  0  0  0  0  0
    2.5470    0.2168    3.1899 H   0  0  0  0  0  0
    3.8357    0.0398    1.9983 H   0  0  0  0  0  0
   -3.4027   -1.3770   -1.6907 H   0  0  0  0  0  0
   -1.7104   -1.4086   -2.1691 H   0  0  0  0  0  0
   -2.4685    0.1070   -1.7137 H   0  0  0  0  0  0
   -2.9998    0.5916    0.7932 H   0  0  0  0  0  0
   -2.6506   -0.6240    2.0096 H   0  0  0  0  0  0
   -3.9826   -0.8577    0.8848 H   0  0  0  0  0  0
   -3.0436   -3.1368    0.1495 H   0  0  0  0  0  0
   -1.7261   -2.9482    1.3000 H   0  0  0  0  0  0
   -1.3738   -3.2724   -0.3876 H   0  0  0  0  0  0
  1  2  1  0  0  0
  1  6  1  0  0  0
  1  7  2  0  0  0
  2  3  1  0  0  0
  2  9  1  0  0  0
  3  4  1  0  0  0
  3 11  1  0  0  0
  4  5  3  0  0  0
  6  8  1  0  0  0
  8 12  1  0  0  0
  8 13  1  0  0  0
  8 14  1  0  0  0
  9 10  1  0  0  0
  9 15  1  0  0  0
  9 16  1  0  0  0
 10 11  1  0  0  0
 10 17  1  0  0  0
 10 18  1  0  0  0
 11 19  1  0  0  0
 11 20  1  0  0  0
 12 21  1  0  0  0
 12 22  1  0  0  0
 12 23  1  0  0  0
 13 24  1  0  0  0
 13 25  1  0  0  0
 13 26  1  0  0  0
 14 27  1  0  0  0
 14 28  1  0  0  0
 14 29  1  0  0  0
M  END
> <chembl_id>
CHEMBL361185

> <chembl_pref_name>
None

> <s_m_source_file>
sdf/inactives_sanitized.sdf

> <i_m_source_file_index>
598

> <i_lp_mmshare_version>
49012

> <i_m_ct_stereo_status>
1

> <i_f3d_flags>
0

> <s_epik_input>
W0NIM11DKFtDSDNdKShbQ0gzXSlPQyg9TylOMU4oQyNOKVtDSDJdW0NIMl1bQ0gyXTE=

> <s_epik_cmdline>
J2VwaWtfcHl0aG9uJywgJy1waHQnLCAnMC41JywgJy1waCcsICc3LjUnLCAnLW50JywgJy1tYScsICcyMDAnLCAnLWltYWUnLCAnPGluZmlsZS5tYWU+JywgJy1vbWFlJywgJzxvdXRmaWxlLm1hZT4n

> <r_lp_tautomer_probability>
1

> <r_epik_Ionization_Penalty>
  0.0000

> <r_epik_Ionization_Penalty_Charging>
  0.0000

> <r_epik_Ionization_Penalty_Neutral>
  0.0000

> <r_epik_State_Penalty>
 -0.0000

> <r_epik_Charging_Adjusted_Penalty>
0

> <i_epik_Tot_Q>
0

> <i_epik_Tot_abs_Q>
0

> <s_epik_Chemistry_Notes>
This compound has an ester and may undergo hydrolysis at high or low pH.

> <s_lp_Force_Field>
OPLS3e

> <r_lp_Energy>
7.696122

> <b_lp_Chiralities_Consistent>
1

> <s_lp_Variant>
sdf/inactives_sanitized.sdf:598-1

$$$$
sdf/inactives_sanitized.sdf:599
                    3D
 Schrodinger Suite 2020-1.
 59 62  0  0  1  0            999 V2000
   -8.0690    1.5043   -3.2090 C   0  0  0  0  0  0
   -7.3503    2.4052   -1.7141 S   0  0  0  0  0  0
   -6.3103    3.3203   -2.1984 O   0  0  0  0  0  0
   -8.4550    2.9262   -0.9015 O   0  0  0  0  0  0
   -6.5402    1.0906   -0.7684 C   0  0  0  0  0  0
   -5.1394    1.0634   -0.7541 C   0  0  0  0  0  0
   -4.4282    0.0864   -0.0468 C   0  0  0  0  0  0
   -5.1528   -0.8820    0.6555 C   0  0  0  0  0  0
   -6.5450   -0.8781    0.6482 C   0  0  0  0  0  0
   -7.2507    0.0982   -0.0603 C   0  0  0  0  0  0
   -8.7080    0.0265   -0.0365 C   0  0  0  0  0  0
   -9.8637   -0.0320   -0.0184 N   0  0  0  0  0  0
   -2.9380    0.0778   -0.0405 C   0  0  0  0  0  0
   -2.2112    1.2704    0.0783 C   0  0  0  0  0  0
   -0.8166    1.2619    0.0931 C   0  0  0  0  0  0
   -0.1177    0.0567   -0.0098 C   0  0  0  0  0  0
    1.4066    0.0578    0.0268 C   0  0  0  0  0  0
    1.9874    0.0074    1.4557 C   0  0  2  0  0  0
    3.4501    0.0627    1.4250 N   0  0  0  0  0  0
    4.2464    0.1765    2.5037 C   0  0  0  0  0  0
    3.7966    0.2706    3.6486 O   0  0  0  0  0  0
    5.7719    0.1505    2.2252 C   0  0  1  0  0  0
    6.4988    0.8285    3.3283 N   0  0  1  0  0  0
    7.5891    0.0031    3.8814 C   0  0  2  0  0  0
    8.5567   -0.3649    2.7219 C   0  0  0  0  0  0
    7.8003   -1.1521    1.6126 C   0  0  0  0  0  0
    6.3004   -1.3111    1.9917 C   0  0  1  0  0  0
    6.2213   -2.0851    3.3430 C   0  0  0  0  0  0
    6.9649   -1.2971    4.4577 C   0  0  0  0  0  0
    1.5031   -1.1566    2.2262 C   0  0  0  0  0  0
    1.1236   -2.0687    2.8293 N   0  0  0  0  0  0
   -0.8317   -1.1399   -0.1348 C   0  0  0  0  0  0
   -0.1803   -2.3212   -0.2413 F   0  0  0  0  0  0
   -2.2263   -1.1247   -0.1492 C   0  0  0  0  0  0
   -8.5603    2.2331   -3.8528 H   0  0  0  0  0  0
   -8.7928    0.7632   -2.8733 H   0  0  0  0  0  0
   -7.2596    1.0167   -3.7515 H   0  0  0  0  0  0
   -4.5859    1.8098   -1.3043 H   0  0  0  0  0  0
   -4.6373   -1.6465    1.2186 H   0  0  0  0  0  0
   -7.0667   -1.6476    1.2012 H   0  0  0  0  0  0
   -2.7269    2.2155    0.1709 H   0  0  0  0  0  0
   -0.2814    2.1950    0.1938 H   0  0  0  0  0  0
    1.7872   -0.7721   -0.5714 H   0  0  0  0  0  0
    1.7626    0.9570   -0.4797 H   0  0  0  0  0  0
    1.6280    0.8907    1.9883 H   0  0  0  0  0  0
    3.8797   -0.0021    0.5140 H   0  0  0  0  0  0
    5.9091    0.7480    1.3213 H   0  0  0  0  0  0
    6.9287    1.6630    2.9561 H   0  0  0  0  0  0
    8.1094    0.5606    4.6610 H   0  0  0  0  0  0
    9.0045    0.5384    2.3045 H   0  0  0  0  0  0
    9.3859   -0.9611    3.1049 H   0  0  0  0  0  0
    7.8963   -0.6398    0.6541 H   0  0  0  0  0  0
    8.2555   -2.1334    1.4717 H   0  0  0  0  0  0
    5.7510   -1.8274    1.2025 H   0  0  0  0  0  0
    5.1839   -2.2640    3.6290 H   0  0  0  0  0  0
    6.6664   -3.0745    3.2289 H   0  0  0  0  0  0
    6.2748   -1.0533    5.2671 H   0  0  0  0  0  0
    7.7424   -1.9194    4.9030 H   0  0  0  0  0  0
   -2.7549   -2.0616   -0.2493 H   0  0  0  0  0  0
  1  2  1  0  0  0
  1 35  1  0  0  0
  1 36  1  0  0  0
  1 37  1  0  0  0
  2  3  2  0  0  0
  2  4  2  0  0  0
  2  5  1  0  0  0
  5  6  2  0  0  0
  5 10  1  0  0  0
  6  7  1  0  0  0
  6 38  1  0  0  0
  7  8  2  0  0  0
  7 13  1  0  0  0
  8  9  1  0  0  0
  8 39  1  0  0  0
  9 10  2  0  0  0
  9 40  1  0  0  0
 10 11  1  0  0  0
 11 12  3  0  0  0
 13 14  2  0  0  0
 13 34  1  0  0  0
 14 15  1  0  0  0
 14 41  1  0  0  0
 15 16  2  0  0  0
 15 42  1  0  0  0
 16 17  1  0  0  0
 16 32  1  0  0  0
 17 18  1  0  0  0
 17 43  1  0  0  0
 17 44  1  0  0  0
 18 19  1  0  0  0
 18 30  1  0  0  0
 18 45  1  0  0  0
 19 20  1  0  0  0
 19 46  1  0  0  0
 20 21  2  0  0  0
 20 22  1  0  0  0
 22 23  1  0  0  0
 22 27  1  0  0  0
 22 47  1  0  0  0
 23 24  1  0  0  0
 23 48  1  0  0  0
 24 25  1  0  0  0
 24 29  1  0  0  0
 24 49  1  0  0  0
 25 26  1  0  0  0
 25 50  1  0  0  0
 25 51  1  0  0  0
 26 27  1  0  0  0
 26 52  1  0  0  0
 26 53  1  0  0  0
 27 28  1  0  0  0
 27 54  1  0  0  0
 28 29  1  0  0  0
 28 55  1  0  0  0
 28 56  1  0  0  0
 29 57  1  0  0  0
 29 58  1  0  0  0
 30 31  3  0  0  0
 32 33  1  0  0  0
 32 34  2  0  0  0
 34 59  1  0  0  0
M  END
> <chembl_id>
CHEMBL3695330

> <chembl_pref_name>
None

> <i_m_ct_stereo_status>
1

> <s_m_source_file>
sdf/inactives_sanitized.sdf

> <i_m_source_file_index>
599

> <i_lp_mmshare_version>
49012

> <i_f3d_flags>
0

> <s_epik_input>
TiNDYzFbY0hdW2NIXWMoW2NIXWMxUyg9TykoPU8pW0NIM10pLWMyW2NIXVtjSF1jKGMoRilbY0hdMilbQ0gyXVtDQEBIXShDI04pW05IXUMoPU8pW0NAQEhdKFtOSF1bQ0BIXTM0KVtDQEBIXShbQ0gyXVtDSDJdMylbQ0gyXVtDSDJdNA==

> <s_epik_cmdline>
J2VwaWtfcHl0aG9uJywgJy1waHQnLCAnMC41JywgJy1waCcsICc3LjUnLCAnLW50JywgJy1tYScsICcyMDAnLCAnLWltYWUnLCAnPGluZmlsZS5tYWU+JywgJy1vbWFlJywgJzxvdXRmaWxlLm1hZT4n

> <r_epik_Ionization_Penalty>
  0.4101

> <r_epik_Ionization_Penalty_Charging>
  0.0000

> <r_epik_Ionization_Penalty_Neutral>
  0.4101

> <r_epik_State_Penalty>
  0.4100

> <r_epik_Charging_Adjusted_Penalty>
0.410033589345069

> <i_epik_Tot_Q>
0

> <i_epik_Tot_abs_Q>
0

> <s_lp_Force_Field>
OPLS3e

> <r_lp_Energy>
41.341463

> <b_lp_Chiralities_Consistent>
1

> <s_lp_Variant>
sdf/inactives_sanitized.sdf:599-1

$$$$
sdf/inactives_sanitized.sdf:599
                    3D
 Schrodinger Suite 2020-1.
 60 63  0  0  1  0            999 V2000
   -7.8471    3.5338    0.0768 C   0  0  0  0  0  0
   -7.0899    2.5019    1.4645 S   0  0  0  0  0  0
   -6.0242    3.2974    2.0856 O   0  0  0  0  0  0
   -8.1718    1.9629    2.2958 O   0  0  0  0  0  0
   -6.3161    1.1128    0.5990 C   0  0  0  0  0  0
   -4.9168    1.0707    0.5540 C   0  0  0  0  0  0
   -4.2315    0.0270   -0.0780 C   0  0  0  0  0  0
   -4.9781   -0.9891   -0.6819 C   0  0  0  0  0  0
   -6.3704   -0.9601   -0.6599 C   0  0  0  0  0  0
   -7.0516    0.0831   -0.0253 C   0  0  0  0  0  0
   -8.5105    0.0526   -0.0531 C   0  0  0  0  0  0
   -9.6672    0.0288   -0.0766 N   0  0  0  0  0  0
   -2.7435   -0.0021   -0.0941 C   0  0  0  0  0  0
   -2.0068    1.1559   -0.3760 C   0  0  0  0  0  0
   -0.6130    1.1380   -0.3630 C   0  0  0  0  0  0
    0.0730   -0.0403   -0.0580 C   0  0  0  0  0  0
    1.5952   -0.0377    0.0255 C   0  0  0  0  0  0
    2.1302   -0.0125    1.4760 C   0  0  2  0  0  0
    1.7005    1.1751    2.2215 N   0  0  0  0  0  0
    0.6514    1.2346    3.0616 C   0  0  0  0  0  0
   -0.0420    0.2493    3.3277 O   0  0  0  0  0  0
    0.3612    2.6344    3.6612 C   0  0  1  0  0  0
   -0.9988    2.5226    4.4130 N   0  3  0  0  0  0
   -0.9010    3.0023    5.8812 C   0  0  2  0  0  0
   -0.3778    4.4611    5.8392 C   0  0  0  0  0  0
    1.0168    4.5283    5.1515 C   0  0  0  0  0  0
    1.4697    3.1256    4.6550 C   0  0  1  0  0  0
    1.5179    2.1782    5.8936 C   0  0  0  0  0  0
    0.1282    2.0818    6.5835 C   0  0  0  0  0  0
    3.5973   -0.1187    1.5229 C   0  0  0  0  0  0
    4.7508   -0.2013    1.5602 N   0  0  0  0  0  0
   -0.6514   -1.2059    0.2106 C   0  0  0  0  0  0
   -0.0089   -2.3586    0.5091 F   0  0  0  0  0  0
   -2.0458   -1.1840    0.1879 C   0  0  0  0  0  0
   -8.3190    4.4136    0.5134 H   0  0  0  0  0  0
   -8.5932    2.9418   -0.4513 H   0  0  0  0  0  0
   -7.0582    3.8387   -0.6100 H   0  0  0  0  0  0
   -4.3426    1.8521    1.0296 H   0  0  0  0  0  0
   -4.4797   -1.8075   -1.1815 H   0  0  0  0  0  0
   -6.9118   -1.7607   -1.1455 H   0  0  0  0  0  0
   -2.5149    2.0817   -0.6047 H   0  0  0  0  0  0
   -0.0692    2.0482   -0.5701 H   0  0  0  0  0  0
    1.9774   -0.9141   -0.5008 H   0  0  0  0  0  0
    1.9893    0.8186   -0.5251 H   0  0  0  0  0  0
    1.7927   -0.9164    1.9878 H   0  0  0  0  0  0
    2.1656    2.0378    1.9787 H   0  0  0  0  0  0
    0.1874    3.3149    2.8256 H   0  0  0  0  0  0
   -1.6938    3.0775    3.9340 H   0  0  0  0  0  0
   -1.9040    2.9185    6.3023 H   0  0  0  0  0  0
   -1.0881    5.0995    5.3111 H   0  0  0  0  0  0
   -0.3131    4.8604    6.8524 H   0  0  0  0  0  0
    0.9897    5.2310    4.3169 H   0  0  0  0  0  0
    1.7554    4.9303    5.8472 H   0  0  0  0  0  0
    2.4458    3.1883    4.1708 H   0  0  0  0  0  0
    1.8691    1.1854    5.6088 H   0  0  0  0  0  0
    2.2569    2.5477    6.6064 H   0  0  0  0  0  0
   -0.2238    1.0488    6.5711 H   0  0  0  0  0  0
    0.2132    2.3560    7.6361 H   0  0  0  0  0  0
   -2.5856   -2.0926    0.4126 H   0  0  0  0  0  0
   -1.3064    1.5597    4.3984 H   0  0  0  0  0  0
  1  2  1  0  0  0
  1 35  1  0  0  0
  1 36  1  0  0  0
  1 37  1  0  0  0
  2  3  2  0  0  0
  2  4  2  0  0  0
  2  5  1  0  0  0
  5  6  2  0  0  0
  5 10  1  0  0  0
  6  7  1  0  0  0
  6 38  1  0  0  0
  7  8  2  0  0  0
  7 13  1  0  0  0
  8  9  1  0  0  0
  8 39  1  0  0  0
  9 10  2  0  0  0
  9 40  1  0  0  0
 10 11  1  0  0  0
 11 12  3  0  0  0
 13 14  2  0  0  0
 13 34  1  0  0  0
 14 15  1  0  0  0
 14 41  1  0  0  0
 15 16  2  0  0  0
 15 42  1  0  0  0
 16 17  1  0  0  0
 16 32  1  0  0  0
 17 18  1  0  0  0
 17 43  1  0  0  0
 17 44  1  0  0  0
 18 19  1  0  0  0
 18 30  1  0  0  0
 18 45  1  0  0  0
 19 20  1  0  0  0
 19 46  1  0  0  0
 20 21  2  0  0  0
 20 22  1  0  0  0
 22 23  1  0  0  0
 22 27  1  0  0  0
 22 47  1  0  0  0
 23 24  1  0  0  0
 23 48  1  0  0  0
 23 60  1  0  0  0
 24 25  1  0  0  0
 24 29  1  0  0  0
 24 49  1  0  0  0
 25 26  1  0  0  0
 25 50  1  0  0  0
 25 51  1  0  0  0
 26 27  1  0  0  0
 26 52  1  0  0  0
 26 53  1  0  0  0
 27 28  1  0  0  0
 27 54  1  0  0  0
 28 29  1  0  0  0
 28 55  1  0  0  0
 28 56  1  0  0  0
 29 57  1  0  0  0
 29 58  1  0  0  0
 30 31  3  0  0  0
 32 33  1  0  0  0
 32 34  2  0  0  0
 34 59  1  0  0  0
M  CHG  1  23   1
M  END
> <chembl_id>
CHEMBL3695330

> <chembl_pref_name>
None

> <i_m_ct_stereo_status>
1

> <s_m_source_file>
sdf/inactives_sanitized.sdf

> <i_m_source_file_index>
599

> <i_lp_mmshare_version>
49012

> <i_f3d_flags>
0

> <s_epik_input>
TiNDYzFbY0hdW2NIXWMoW2NIXWMxUyg9TykoPU8pW0NIM10pLWMyW2NIXVtjSF1jKGMoRilbY0hdMilbQ0gyXVtDQEBIXShDI04pW05IXUMoPU8pW0NAQEhdKFtOSF1bQ0BIXTM0KVtDQEBIXShbQ0gyXVtDSDJdMylbQ0gyXVtDSDJdNA==

> <s_epik_cmdline>
J2VwaWtfcHl0aG9uJywgJy1waHQnLCAnMC41JywgJy1waCcsICc3LjUnLCAnLW50JywgJy1tYScsICcyMDAnLCAnLWltYWUnLCAnPGluZmlsZS5tYWU+JywgJy1vbWFlJywgJzxvdXRmaWxlLm1hZT4n

> <r_epik_Ionization_Penalty>
  0.4114

> <r_epik_Ionization_Penalty_Charging>
  0.4113

> <r_epik_Ionization_Penalty_Neutral>
  0.0002

> <r_epik_State_Penalty>
  0.4113

> <r_epik_Charging_Adjusted_Penalty>
0.822612897831462

> <i_epik_Tot_Q>
1

> <i_epik_Tot_abs_Q>
1

> <s_lp_Force_Field>
OPLS3e

> <r_lp_Energy>
49.426168

> <b_lp_Chiralities_Consistent>
1

> <s_lp_Variant>
sdf/inactives_sanitized.sdf:599-2

$$$$
sdf/inactives_sanitized.sdf:600
                    3D
 Schrodinger Suite 2020-1.
 64 67  0  0  1  0            999 V2000
    4.5389    0.8592   -3.7034 C   0  0  0  0  0  0
    3.1708    0.3045   -3.3679 C   0  0  0  0  0  0
    4.3718   -0.6191   -3.4678 C   0  0  0  0  0  0
   -4.1789   -1.0167    0.1354 C   0  0  0  0  0  0
   -5.1410   -0.0749   -0.2506 C   0  0  0  0  0  0
   -4.7009    1.1480   -0.7722 C   0  0  0  0  0  0
   -3.3428    1.4225   -0.9050 C   0  0  0  0  0  0
   -2.3834    0.4807   -0.5139 C   0  0  0  0  0  0
   -2.8193   -0.7465    0.0066 C   0  0  0  0  0  0
   -6.6010   -0.3685   -0.1122 C   0  0  0  0  0  0
   -7.5114    0.6519    0.2013 C   0  0  0  0  0  0
   -8.8710    0.3807    0.3304 C   0  0  0  0  0  0
   -9.3355   -0.9178    0.1449 C   0  0  0  0  0  0
   -8.4506   -1.9454   -0.1668 C   0  0  0  0  0  0
   -7.0915   -1.6703   -0.2937 C   0  0  0  0  0  0
   -0.9118    0.7966   -0.6740 C   0  0  0  0  0  0
   -0.0552    0.0512    0.0534 N   0  0  0  0  0  0
   -0.5394    1.7080   -1.4172 O   0  0  0  0  0  0
    1.4098    0.1720    0.0517 C   0  0  2  0  0  0
    1.9943   -0.3258   -1.2880 C   0  0  0  0  0  0
    2.6218    0.5884   -2.0461 N   0  0  0  0  0  0
    1.8874   -1.5142   -1.5947 O   0  0  0  0  0  0
    2.0778   -0.5659    1.2516 C   0  0  0  0  0  0
    1.7266    0.0087    2.6476 C   0  0  0  0  0  0
    2.1984   -0.6194    3.7601 N   0  0  0  0  0  0
    2.1687    0.2119   -4.4448 C   0  0  0  0  0  0
    1.3817    0.1391   -5.2900 N   0  0  0  0  0  0
    1.0288    1.0235    2.7186 O   0  0  0  0  0  0
    1.8852   -0.1086    5.1121 C   0  0  0  0  0  0
    3.2059    0.3232    5.7861 C   0  0  0  0  0  0
    4.1821   -0.8709    5.8180 N   0  3  0  0  0  0
    4.4466   -1.3702    4.3825 C   0  0  0  0  0  0
    3.1120   -1.7812    3.7218 C   0  0  0  0  0  0
    5.5036   -0.4662    6.5003 C   0  0  0  0  0  0
    4.7291    1.2075   -4.7191 H   0  0  0  0  0  0
    5.0725    1.4470   -2.9556 H   0  0  0  0  0  0
    4.7887   -1.0515   -2.5575 H   0  0  0  0  0  0
    4.4464   -1.2951   -4.3202 H   0  0  0  0  0  0
   -4.4779   -1.9686    0.5491 H   0  0  0  0  0  0
   -5.4115    1.8957   -1.0926 H   0  0  0  0  0  0
   -3.0471    2.3772   -1.3165 H   0  0  0  0  0  0
   -2.1159   -1.5074    0.3128 H   0  0  0  0  0  0
   -7.1695    1.6645    0.3590 H   0  0  0  0  0  0
   -9.5618    1.1740    0.5760 H   0  0  0  0  0  0
  -10.3900   -1.1297    0.2438 H   0  0  0  0  0  0
   -8.8163   -2.9514   -0.3114 H   0  0  0  0  0  0
   -6.4225   -2.4800   -0.5466 H   0  0  0  0  0  0
   -0.4306   -0.6736    0.6471 H   0  0  0  0  0  0
    1.6399    1.2369    0.1462 H   0  0  0  0  0  0
    2.6080    1.5561   -1.7574 H   0  0  0  0  0  0
    1.7897   -1.6186    1.2276 H   0  0  0  0  0  0
    3.1638   -0.5296    1.1450 H   0  0  0  0  0  0
    1.1811    0.7249    5.0976 H   0  0  0  0  0  0
    1.4075   -0.8968    5.6954 H   0  0  0  0  0  0
    3.6902    1.1554    5.2707 H   0  0  0  0  0  0
    3.0400    0.6056    6.8268 H   0  0  0  0  0  0
    4.9659   -0.5831    3.8318 H   0  0  0  0  0  0
    5.1144   -2.2274    4.4800 H   0  0  0  0  0  0
    2.6629   -2.6081    4.2735 H   0  0  0  0  0  0
    3.2993   -2.1603    2.7184 H   0  0  0  0  0  0
    5.9503    0.3465    5.9249 H   0  0  0  0  0  0
    6.1441   -1.3491    6.5128 H   0  0  0  0  0  0
    5.2585   -0.1521    7.5158 H   0  0  0  0  0  0
    3.7530   -1.6202    6.3434 H   0  0  0  0  0  0
  1  2  1  0  0  0
  1  3  1  0  0  0
  1 35  1  0  0  0
  1 36  1  0  0  0
  2  3  1  0  0  0
  2 21  1  0  0  0
  2 26  1  0  0  0
  3 37  1  0  0  0
  3 38  1  0  0  0
  4  5  2  0  0  0
  4  9  1  0  0  0
  4 39  1  0  0  0
  5  6  1  0  0  0
  5 10  1  0  0  0
  6  7  2  0  0  0
  6 40  1  0  0  0
  7  8  1  0  0  0
  7 41  1  0  0  0
  8  9  2  0  0  0
  8 16  1  0  0  0
  9 42  1  0  0  0
 10 11  2  0  0  0
 10 15  1  0  0  0
 11 12  1  0  0  0
 11 43  1  0  0  0
 12 13  2  0  0  0
 12 44  1  0  0  0
 13 14  1  0  0  0
 13 45  1  0  0  0
 14 15  2  0  0  0
 14 46  1  0  0  0
 15 47  1  0  0  0
 16 17  1  0  0  0
 16 18  2  0  0  0
 17 19  1  0  0  0
 17 48  1  0  0  0
 19 20  1  0  0  0
 19 23  1  0  0  0
 19 49  1  0  0  0
 20 21  1  0  0  0
 20 22  2  0  0  0
 21 50  1  0  0  0
 23 24  1  0  0  0
 23 51  1  0  0  0
 23 52  1  0  0  0
 24 25  1  0  0  0
 24 28  2  0  0  0
 25 29  1  0  0  0
 25 33  1  0  0  0
 26 27  3  0  0  0
 29 30  1  0  0  0
 29 53  1  0  0  0
 29 54  1  0  0  0
 30 31  1  0  0  0
 30 55  1  0  0  0
 30 56  1  0  0  0
 31 32  1  0  0  0
 31 34  1  0  0  0
 31 64  1  0  0  0
 32 33  1  0  0  0
 32 57  1  0  0  0
 32 58  1  0  0  0
 33 59  1  0  0  0
 33 60  1  0  0  0
 34 61  1  0  0  0
 34 62  1  0  0  0
 34 63  1  0  0  0
M  CHG  1  31   1
M  END
> <chembl_id>
CHEMBL4227619

> <chembl_pref_name>
None

> <i_m_ct_stereo_status>
1

> <s_m_source_file>
sdf/inactives_sanitized.sdf

> <i_m_source_file_index>
600

> <i_lp_mmshare_version>
49012

> <i_f3d_flags>
0

> <s_epik_input>
W0NIMl0xW0NIMl1OKFtDSDNdKVtDSDJdW0NIMl1OMUMoPU8pW0NIMl1bQ0BASF0oQyg9TylbTkhdQzIoQyNOKVtDSDJdW0NIMl0yKVtOSF1DKD1PKWMoW2NIXVtjSF0zKVtjSF1bY0hdYzMtYzRbY0hdW2NIXVtjSF1bY0hdW2NIXTQ=

> <s_epik_cmdline>
J2VwaWtfcHl0aG9uJywgJy1waHQnLCAnMC41JywgJy1waCcsICc3LjUnLCAnLW50JywgJy1tYScsICcyMDAnLCAnLWltYWUnLCAnPGluZmlsZS5tYWU+JywgJy1vbWFlJywgJzxvdXRmaWxlLm1hZT4n

> <r_epik_Ionization_Penalty>
  0.3320

> <r_epik_Ionization_Penalty_Charging>
  0.3320

> <r_epik_Ionization_Penalty_Neutral>
  0.0000

> <r_epik_State_Penalty>
  0.3272

> <r_epik_Charging_Adjusted_Penalty>
0.659162387916902

> <i_epik_Tot_Q>
1

> <i_epik_Tot_abs_Q>
1

> <s_lp_Force_Field>
OPLS3e

> <r_lp_Energy>
53.660723

> <b_lp_Chiralities_Consistent>
1

> <s_lp_Variant>
sdf/inactives_sanitized.sdf:600-1

$$$$
sdf/inactives_sanitized.sdf:600
                    3D
 Schrodinger Suite 2020-1.
 63 66  0  0  1  0            999 V2000
    2.2158    2.6182   -3.9248 C   0  0  0  0  0  0
    3.1022    2.0201   -2.8467 C   0  0  0  0  0  0
    3.1177    3.5103   -3.1131 C   0  0  0  0  0  0
   -4.4666   -0.8183    0.4068 C   0  0  0  0  0  0
   -5.4188    0.0818   -0.0871 C   0  0  0  0  0  0
   -4.9706    1.2949   -0.6243 C   0  0  0  0  0  0
   -3.6132    1.6006   -0.6678 C   0  0  0  0  0  0
   -2.6630    0.6961   -0.1790 C   0  0  0  0  0  0
   -3.1079   -0.5185    0.3638 C   0  0  0  0  0  0
   -6.8774   -0.2444   -0.0406 C   0  0  0  0  0  0
   -7.7405    0.1787   -1.0624 C   0  0  0  0  0  0
   -9.0984   -0.1272   -1.0216 C   0  0  0  0  0  0
   -9.6083   -0.8594    0.0461 C   0  0  0  0  0  0
   -8.7707   -1.2874    1.0714 C   0  0  0  0  0  0
   -7.4132   -0.9813    1.0260 C   0  0  0  0  0  0
   -1.1913    1.0471   -0.2360 C   0  0  0  0  0  0
   -0.3287    0.0191   -0.1104 N   0  0  0  0  0  0
   -0.8249    2.2127   -0.4051 O   0  0  0  0  0  0
    1.1384    0.1005   -0.1515 C   0  0  2  0  0  0
    1.6403    0.5008   -1.5562 C   0  0  0  0  0  0
    2.4750    1.5512   -1.6154 N   0  0  0  0  0  0
    1.2961   -0.1573   -2.5393 O   0  0  0  0  0  0
    1.8157   -1.2278    0.3035 C   0  0  0  0  0  0
    1.5454   -1.6242    1.7785 C   0  0  0  0  0  0
    1.9288   -2.8554    2.2168 N   0  0  0  0  0  0
    4.2487    1.2133   -3.3012 C   0  0  0  0  0  0
    5.1487    0.5792   -3.6574 N   0  0  0  0  0  0
    0.9388   -0.8317    2.5047 O   0  0  0  0  0  0
    1.6202   -3.2799    3.6002 C   0  0  0  0  0  0
    1.0742   -4.7264    3.5708 C   0  0  0  0  0  0
    1.9788   -5.6296    2.8574 N   0  0  0  0  0  0
    2.1821   -5.1890    1.4762 C   0  0  0  0  0  0
    2.7788   -3.7635    1.4160 C   0  0  0  0  0  0
    1.4535   -6.9912    2.8807 C   0  0  0  0  0  0
    2.4644    2.4368   -4.9709 H   0  0  0  0  0  0
    1.1395    2.6756   -3.7571 H   0  0  0  0  0  0
    2.6621    4.1846   -2.3868 H   0  0  0  0  0  0
    3.9911    3.9486   -3.5972 H   0  0  0  0  0  0
   -4.7723   -1.7676    0.8215 H   0  0  0  0  0  0
   -5.6753    2.0199   -1.0044 H   0  0  0  0  0  0
   -3.3103    2.5492   -1.0884 H   0  0  0  0  0  0
   -2.4128   -1.2445    0.7609 H   0  0  0  0  0  0
   -7.3622    0.7394   -1.9045 H   0  0  0  0  0  0
   -9.7524    0.2001   -1.8163 H   0  0  0  0  0  0
  -10.6614   -1.0972    0.0798 H   0  0  0  0  0  0
   -9.1720   -1.8529    1.8994 H   0  0  0  0  0  0
   -6.7810   -1.3140    1.8363 H   0  0  0  0  0  0
   -0.7037   -0.9086    0.0204 H   0  0  0  0  0  0
    1.4379    0.8829    0.5511 H   0  0  0  0  0  0
    2.7733    1.9889   -0.7558 H   0  0  0  0  0  0
    1.4707   -2.0355   -0.3450 H   0  0  0  0  0  0
    2.8979   -1.1566    0.1774 H   0  0  0  0  0  0
    2.5343   -3.2588    4.1949 H   0  0  0  0  0  0
    0.8837   -2.6422    4.0911 H   0  0  0  0  0  0
    0.9180   -5.0827    4.5902 H   0  0  0  0  0  0
    0.1080   -4.7371    3.0615 H   0  0  0  0  0  0
    2.8411   -5.8864    0.9570 H   0  0  0  0  0  0
    1.2166   -5.1990    0.9658 H   0  0  0  0  0  0
    2.8791   -3.4761    0.3710 H   0  0  0  0  0  0
    3.7802   -3.7852    1.8478 H   0  0  0  0  0  0
    2.1409   -7.6775    2.3841 H   0  0  0  0  0  0
    0.4855   -7.0590    2.3809 H   0  0  0  0  0  0
    1.3308   -7.3394    3.9071 H   0  0  0  0  0  0
  1  2  1  0  0  0
  1  3  1  0  0  0
  1 35  1  0  0  0
  1 36  1  0  0  0
  2  3  1  0  0  0
  2 21  1  0  0  0
  2 26  1  0  0  0
  3 37  1  0  0  0
  3 38  1  0  0  0
  4  5  2  0  0  0
  4  9  1  0  0  0
  4 39  1  0  0  0
  5  6  1  0  0  0
  5 10  1  0  0  0
  6  7  2  0  0  0
  6 40  1  0  0  0
  7  8  1  0  0  0
  7 41  1  0  0  0
  8  9  2  0  0  0
  8 16  1  0  0  0
  9 42  1  0  0  0
 10 11  2  0  0  0
 10 15  1  0  0  0
 11 12  1  0  0  0
 11 43  1  0  0  0
 12 13  2  0  0  0
 12 44  1  0  0  0
 13 14  1  0  0  0
 13 45  1  0  0  0
 14 15  2  0  0  0
 14 46  1  0  0  0
 15 47  1  0  0  0
 16 17  1  0  0  0
 16 18  2  0  0  0
 17 19  1  0  0  0
 17 48  1  0  0  0
 19 20  1  0  0  0
 19 23  1  0  0  0
 19 49  1  0  0  0
 20 21  1  0  0  0
 20 22  2  0  0  0
 21 50  1  0  0  0
 23 24  1  0  0  0
 23 51  1  0  0  0
 23 52  1  0  0  0
 24 25  1  0  0  0
 24 28  2  0  0  0
 25 29  1  0  0  0
 25 33  1  0  0  0
 26 27  3  0  0  0
 29 30  1  0  0  0
 29 53  1  0  0  0
 29 54  1  0  0  0
 30 31  1  0  0  0
 30 55  1  0  0  0
 30 56  1  0  0  0
 31 32  1  0  0  0
 31 34  1  0  0  0
 32 33  1  0  0  0
 32 57  1  0  0  0
 32 58  1  0  0  0
 33 59  1  0  0  0
 33 60  1  0  0  0
 34 61  1  0  0  0
 34 62  1  0  0  0
 34 63  1  0  0  0
M  END
> <chembl_id>
CHEMBL4227619

> <chembl_pref_name>
None

> <i_m_ct_stereo_status>
1

> <s_m_source_file>
sdf/inactives_sanitized.sdf

> <i_m_source_file_index>
600

> <i_lp_mmshare_version>
49012

> <i_f3d_flags>
0

> <s_epik_input>
W0NIMl0xW0NIMl1OKFtDSDNdKVtDSDJdW0NIMl1OMUMoPU8pW0NIMl1bQ0BASF0oQyg9TylbTkhdQzIoQyNOKVtDSDJdW0NIMl0yKVtOSF1DKD1PKWMoW2NIXVtjSF0zKVtjSF1bY0hdYzMtYzRbY0hdW2NIXVtjSF1bY0hdW2NIXTQ=

> <s_epik_cmdline>
J2VwaWtfcHl0aG9uJywgJy1waHQnLCAnMC41JywgJy1waCcsICc3LjUnLCAnLW50JywgJy1tYScsICcyMDAnLCAnLWltYWUnLCAnPGluZmlsZS5tYWU+JywgJy1vbWFlJywgJzxvdXRmaWxlLm1hZT4n

> <r_epik_Ionization_Penalty>
  0.5014

> <r_epik_Ionization_Penalty_Charging>
  0.0000

> <r_epik_Ionization_Penalty_Neutral>
  0.5014

> <r_epik_State_Penalty>
  0.5079

> <r_epik_Charging_Adjusted_Penalty>
0.507940140501697

> <i_epik_Tot_Q>
0

> <i_epik_Tot_abs_Q>
0

> <s_lp_Force_Field>
OPLS3e

> <r_lp_Energy>
59.105052

> <b_lp_Chiralities_Consistent>
1

> <s_lp_Variant>
sdf/inactives_sanitized.sdf:600-2

$$$$
sdf/inactives_sanitized.sdf:601
                    3D
 Schrodinger Suite 2020-1.
 31 32  0  0  1  0            999 V2000
   -2.7186   -0.0007   -0.0074 N   0  0  0  0  0  0
   -2.1079   -1.2228    0.0206 C   0  0  0  0  0  0
   -0.7048   -1.3213    0.0447 C   0  0  0  0  0  0
    0.0336   -0.1312    0.0553 C   0  0  0  0  0  0
   -0.5581    1.0930    0.0358 N   0  0  0  0  0  0
   -1.9133    1.0917    0.0033 C   0  0  0  0  0  0
   -2.5673    2.3884   -0.0252 C   0  0  0  0  0  0
   -3.0882    3.4216   -0.0480 N   0  0  0  0  0  0
   -3.0044   -2.4264    0.0023 C   0  0  0  0  0  0
    1.5552   -0.1442    0.0906 C   0  0  0  0  0  0
    2.1320    0.3504    1.4308 C   0  0  0  0  0  0
    3.6649    0.2958    1.4766 C   0  0  0  0  0  0
   -2.5437   -3.6804    0.4398 C   0  0  0  0  0  0
   -3.3721   -4.8073    0.4243 C   0  0  0  0  0  0
   -4.6868   -4.6943   -0.0295 C   0  0  0  0  0  0
   -5.1664   -3.4616   -0.4635 C   0  0  0  0  0  0
   -4.3345   -2.3429   -0.4469 C   0  0  0  0  0  0
   -2.8667   -6.0937    0.8814 C   0  0  0  0  0  0
   -2.4647   -7.1162    1.2446 N   0  0  0  0  0  0
   -0.1972   -2.2741    0.0478 H   0  0  0  0  0  0
    1.9127   -1.1554   -0.1109 H   0  0  0  0  0  0
    1.9283    0.4711   -0.7301 H   0  0  0  0  0  0
    1.8078    1.3752    1.6183 H   0  0  0  0  0  0
    1.7305   -0.2520    2.2470 H   0  0  0  0  0  0
    4.0377    0.6436    2.4404 H   0  0  0  0  0  0
    4.1070    0.9256    0.7039 H   0  0  0  0  0  0
    4.0294   -0.7214    1.3291 H   0  0  0  0  0  0
   -1.5336   -3.7849    0.8092 H   0  0  0  0  0  0
   -5.3435   -5.5531   -0.0488 H   0  0  0  0  0  0
   -6.1837   -3.3723   -0.8150 H   0  0  0  0  0  0
   -4.7387   -1.4039   -0.7960 H   0  0  0  0  0  0
  1  6  2  0  0  0
  1  2  1  0  0  0
  2  3  2  0  0  0
  2  9  1  0  0  0
  3  4  1  0  0  0
  3 20  1  0  0  0
  4  5  2  0  0  0
  4 10  1  0  0  0
  5  6  1  0  0  0
  6  7  1  0  0  0
  7  8  3  0  0  0
  9 13  2  0  0  0
  9 17  1  0  0  0
 10 11  1  0  0  0
 10 21  1  0  0  0
 10 22  1  0  0  0
 11 12  1  0  0  0
 11 23  1  0  0  0
 11 24  1  0  0  0
 12 25  1  0  0  0
 12 26  1  0  0  0
 12 27  1  0  0  0
 13 14  1  0  0  0
 13 28  1  0  0  0
 14 15  2  0  0  0
 14 18  1  0  0  0
 15 16  1  0  0  0
 15 29  1  0  0  0
 16 17  2  0  0  0
 16 30  1  0  0  0
 17 31  1  0  0  0
 18 19  3  0  0  0
M  END
> <chembl_id>
CHEMBL1082860

> <chembl_pref_name>
None

> <s_m_source_file>
sdf/inactives_sanitized.sdf

> <i_m_source_file_index>
601

> <i_lp_mmshare_version>
49012

> <i_m_ct_stereo_status>
1

> <i_f3d_flags>
0

> <s_epik_input>
W0NIM11bQ0gyXVtDSDJdYyhbY0hdMSluYyhDI04pbmMxLWMyW2NIXWMoQyNOKVtjSF1bY0hdW2NIXTI=

> <s_epik_cmdline>
J2VwaWtfcHl0aG9uJywgJy1waHQnLCAnMC41JywgJy1waCcsICc3LjUnLCAnLW50JywgJy1tYScsICcyMDAnLCAnLWltYWUnLCAnPGluZmlsZS5tYWU+JywgJy1vbWFlJywgJzxvdXRmaWxlLm1hZT4n

> <r_lp_tautomer_probability>
1

> <r_epik_Ionization_Penalty>
  0.0000

> <r_epik_Ionization_Penalty_Charging>
  0.0000

> <r_epik_Ionization_Penalty_Neutral>
  0.0000

> <r_epik_State_Penalty>
 -0.0000

> <r_epik_Charging_Adjusted_Penalty>
0

> <i_epik_Tot_Q>
0

> <i_epik_Tot_abs_Q>
0

> <s_lp_Force_Field>
OPLS3e

> <r_lp_Energy>
28.544173

> <b_lp_Chiralities_Consistent>
1

> <s_lp_Variant>
sdf/inactives_sanitized.sdf:601-1

$$$$
sdf/inactives_sanitized.sdf:602
                    3D
 Schrodinger Suite 2020-1.
 53 56  0  0  1  0            999 V2000
    4.4655   -0.3132    3.5025 C   0  0  0  0  0  0
    3.3963    0.7251    3.2111 C   0  0  0  0  0  0
    4.8406    1.1416    3.3935 C   0  0  0  0  0  0
   -4.1170   -0.9743   -0.0913 C   0  0  0  0  0  0
   -5.0617    0.0307    0.1518 C   0  0  0  0  0  0
   -4.5999    1.2989    0.5264 C   0  0  0  0  0  0
   -3.2379    1.5565    0.6536 C   0  0  0  0  0  0
   -2.2963    0.5508    0.4051 C   0  0  0  0  0  0
   -2.7538   -0.7220    0.0340 C   0  0  0  0  0  0
   -6.5260   -0.2431    0.0155 C   0  0  0  0  0  0
   -7.4565    0.3947    0.8498 C   0  0  0  0  0  0
   -8.8199    0.1424    0.7232 C   0  0  0  0  0  0
   -9.2684   -0.7531   -0.2425 C   0  0  0  0  0  0
   -8.3638   -1.3973   -1.0806 C   0  0  0  0  0  0
   -7.0010   -1.1428   -0.9506 C   0  0  0  0  0  0
   -0.8198    0.8511    0.5507 C   0  0  0  0  0  0
    0.0250    0.0000   -0.0646 N   0  0  0  0  0  0
   -0.4342    1.8402    1.1784 O   0  0  0  0  0  0
    1.4913    0.0804   -0.0690 C   0  0  1  0  0  0
    2.0701   -0.1892    1.3365 C   0  0  0  0  0  0
    2.8305    0.7825    1.8671 N   0  0  0  0  0  0
    1.8421   -1.2638    1.8946 O   0  0  0  0  0  0
    2.1281   -0.8729   -1.1139 C   0  0  0  0  0  0
    1.6207   -0.6083   -2.5270 C   0  0  0  0  0  0
    2.4406    1.0168    4.2945 C   0  0  0  0  0  0
    1.6900    1.2461    5.1449 N   0  0  0  0  0  0
    0.5663   -1.3546   -3.0669 C   0  0  0  0  0  0
    0.1185   -1.0810   -4.3608 C   0  0  0  0  0  0
    0.7459   -0.0630   -5.0811 C   0  0  0  0  0  0
    1.7709    0.6724   -4.5792 N   0  0  0  0  0  0
    2.1924    0.3938   -3.3188 C   0  0  0  0  0  0
    4.4832   -0.7863    4.4849 H   0  0  0  0  0  0
    4.7794   -0.9922    2.7088 H   0  0  0  0  0  0
    5.4150    1.4646    2.5244 H   0  0  0  0  0  0
    5.1219    1.6777    4.3004 H   0  0  0  0  0  0
   -4.4328   -1.9694   -0.3683 H   0  0  0  0  0  0
   -5.2951    2.1040    0.7136 H   0  0  0  0  0  0
   -2.9250    2.5503    0.9418 H   0  0  0  0  0  0
   -2.0650   -1.5330   -0.1545 H   0  0  0  0  0  0
   -7.1284    1.0856    1.6124 H   0  0  0  0  0  0
   -9.5262    0.6380    1.3730 H   0  0  0  0  0  0
  -10.3257   -0.9494   -0.3416 H   0  0  0  0  0  0
   -8.7176   -2.0899   -1.8300 H   0  0  0  0  0  0
   -6.3165   -1.6454   -1.6182 H   0  0  0  0  0  0
   -0.3639   -0.7814   -0.5705 H   0  0  0  0  0  0
    1.7500    1.1004   -0.3649 H   0  0  0  0  0  0
    2.9183    1.6588    1.3733 H   0  0  0  0  0  0
    3.2152   -0.7698   -1.1108 H   0  0  0  0  0  0
    1.9268   -1.9149   -0.8556 H   0  0  0  0  0  0
    0.0940   -2.1358   -2.4891 H   0  0  0  0  0  0
   -0.6953   -1.6438   -4.7939 H   0  0  0  0  0  0
    0.4272    0.1774   -6.0847 H   0  0  0  0  0  0
    3.0063    0.9979   -2.9455 H   0  0  0  0  0  0
  1  2  1  0  0  0
  1  3  1  0  0  0
  1 32  1  0  0  0
  1 33  1  0  0  0
  2  3  1  0  0  0
  2 21  1  0  0  0
  2 25  1  0  0  0
  3 34  1  0  0  0
  3 35  1  0  0  0
  4  5  2  0  0  0
  4  9  1  0  0  0
  4 36  1  0  0  0
  5  6  1  0  0  0
  5 10  1  0  0  0
  6  7  2  0  0  0
  6 37  1  0  0  0
  7  8  1  0  0  0
  7 38  1  0  0  0
  8  9  2  0  0  0
  8 16  1  0  0  0
  9 39  1  0  0  0
 10 11  2  0  0  0
 10 15  1  0  0  0
 11 12  1  0  0  0
 11 40  1  0  0  0
 12 13  2  0  0  0
 12 41  1  0  0  0
 13 14  1  0  0  0
 13 42  1  0  0  0
 14 15  2  0  0  0
 14 43  1  0  0  0
 15 44  1  0  0  0
 16 17  1  0  0  0
 16 18  2  0  0  0
 17 19  1  0  0  0
 17 45  1  0  0  0
 19 20  1  0  0  0
 19 23  1  0  0  0
 19 46  1  0  0  0
 20 21  1  0  0  0
 20 22  2  0  0  0
 21 47  1  0  0  0
 23 24  1  0  0  0
 23 48  1  0  0  0
 23 49  1  0  0  0
 24 27  2  0  0  0
 24 31  1  0  0  0
 25 26  3  0  0  0
 27 28  1  0  0  0
 27 50  1  0  0  0
 28 29  2  0  0  0
 28 51  1  0  0  0
 29 30  1  0  0  0
 29 52  1  0  0  0
 30 31  2  0  0  0
 31 53  1  0  0  0
M  END
> <chembl_id>
CHEMBL4228081

> <chembl_pref_name>
None

> <i_m_ct_stereo_status>
1

> <s_m_source_file>
sdf/inactives_sanitized.sdf

> <i_m_source_file_index>
602

> <i_lp_mmshare_version>
49012

> <i_f3d_flags>
0

> <s_epik_input>
W2NIXTFuW2NIXVtjSF1bY0hdYzFbQ0gyXVtDQEhdKEMoPU8pW05IXUMyKEMjTilbQ0gyXVtDSDJdMilbTkhdQyg9TyljKFtjSF1bY0hdMylbY0hdW2NIXWMzLWM0W2NIXVtjSF1bY0hdW2NIXVtjSF00

> <s_epik_cmdline>
J2VwaWtfcHl0aG9uJywgJy1waHQnLCAnMC41JywgJy1waCcsICc3LjUnLCAnLW50JywgJy1tYScsICcyMDAnLCAnLWltYWUnLCAnPGluZmlsZS5tYWU+JywgJy1vbWFlJywgJzxvdXRmaWxlLm1hZT4n

> <r_lp_tautomer_probability>
1

> <r_epik_Ionization_Penalty>
  0.0016

> <r_epik_Ionization_Penalty_Charging>
  0.0000

> <r_epik_Ionization_Penalty_Neutral>
  0.0016

> <r_epik_State_Penalty>
 -0.0000

> <r_epik_Charging_Adjusted_Penalty>
0

> <i_epik_Tot_Q>
0

> <i_epik_Tot_abs_Q>
0

> <s_lp_Force_Field>
OPLS3e

> <r_lp_Energy>
45.744421

> <b_lp_Chiralities_Consistent>
1

> <s_lp_Variant>
sdf/inactives_sanitized.sdf:602-1

$$$$
sdf/inactives_sanitized.sdf:603
                    3D
 Schrodinger Suite 2020-1.
 28 30  0  0  1  0            999 V2000
   -0.6395    1.1928   -0.0129 N   0  0  0  0  0  0
   -0.0265   -0.0259    0.0024 C   0  0  0  0  0  0
   -0.7407   -1.2371    0.0067 C   0  0  0  0  0  0
   -1.9936    1.2761   -0.0117 C   0  0  0  0  0  0
   -3.1615   -2.0478    0.0026 N   0  0  0  0  0  0
   -4.3343   -1.3318   -0.0014 C   0  0  0  0  0  0
   -4.1612   -0.0349   -0.0041 N   0  0  0  0  0  0
   -2.7961    0.1233   -0.0039 C   0  0  0  0  0  0
   -2.1352   -1.1314    0.0035 C   0  0  0  0  0  0
   -2.5349    2.6269   -0.0209 C   0  0  0  0  0  0
   -2.9657    3.7010   -0.0281 N   0  0  0  0  0  0
    1.4717   -0.0009   -0.0018 C   0  0  0  0  0  0
    2.2113   -1.0400    0.5863 C   0  0  0  0  0  0
    3.6123   -1.0341    0.5937 C   0  0  0  0  0  0
    4.2894    0.0341   -0.0027 C   0  0  0  0  0  0
    3.5779    1.0757   -0.5915 C   0  0  0  0  0  0
    2.1846    1.0580   -0.5885 C   0  0  0  0  0  0
    4.3906   -2.1757    1.2468 C   0  0  0  0  0  0
    5.5737   -2.3595    0.6576 F   0  0  0  0  0  0
    4.5989   -1.8782    2.5290 F   0  0  0  0  0  0
    3.7165   -3.3254    1.1832 F   0  0  0  0  0  0
   -0.2481   -2.1981    0.0004 H   0  0  0  0  0  0
   -3.1186   -3.0568    0.0047 H   0  0  0  0  0  0
   -5.2811   -1.8523   -0.0023 H   0  0  0  0  0  0
    1.6939   -1.8598    1.0631 H   0  0  0  0  0  0
    5.3694    0.0646   -0.0086 H   0  0  0  0  0  0
    4.1061    1.8984   -1.0506 H   0  0  0  0  0  0
    1.6606    1.8784   -1.0573 H   0  0  0  0  0  0
  1  2  2  0  0  0
  1  4  1  0  0  0
  2  3  1  0  0  0
  2 12  1  0  0  0
  3  9  2  0  0  0
  3 22  1  0  0  0
  4 10  1  0  0  0
  4  8  2  0  0  0
  5  6  1  0  0  0
  5  9  1  0  0  0
  5 23  1  0  0  0
  6  7  2  0  0  0
  6 24  1  0  0  0
  7  8  1  0  0  0
  8  9  1  0  0  0
 10 11  3  0  0  0
 12 13  2  0  0  0
 12 17  1  0  0  0
 13 14  1  0  0  0
 13 25  1  0  0  0
 14 15  2  0  0  0
 14 18  1  0  0  0
 15 16  1  0  0  0
 15 26  1  0  0  0
 16 17  2  0  0  0
 16 27  1  0  0  0
 17 28  1  0  0  0
 18 19  1  0  0  0
 18 20  1  0  0  0
 18 21  1  0  0  0
M  END
> <chembl_id>
CHEMBL1209854

> <chembl_pref_name>
None

> <s_m_source_file>
sdf/inactives_sanitized.sdf

> <i_m_source_file_index>
603

> <i_lp_mmshare_version>
49012

> <i_m_ct_stereo_status>
1

> <i_f3d_flags>
0

> <s_epik_input>
bjFbY0hdW25IXWMoYzEyKVtjSF1jKG5jMkMjTiktYzNbY0hdYyhDKEYpKEYpRilbY0hdW2NIXVtjSF0z

> <s_epik_cmdline>
J2VwaWtfcHl0aG9uJywgJy1waHQnLCAnMC41JywgJy1waCcsICc3LjUnLCAnLW50JywgJy1tYScsICcyMDAnLCAnLWltYWUnLCAnPGluZmlsZS5tYWU+JywgJy1vbWFlJywgJzxvdXRmaWxlLm1hZT4n

> <r_lp_tautomer_probability>
1

> <r_epik_Ionization_Penalty>
  0.0457

> <r_epik_Ionization_Penalty_Charging>
  0.0000

> <r_epik_Ionization_Penalty_Neutral>
  0.0457

> <r_epik_State_Penalty>
 -0.0000

> <r_epik_Charging_Adjusted_Penalty>
9.8662176494056e-08

> <i_epik_Tot_Q>
0

> <i_epik_Tot_abs_Q>
0

> <s_lp_Force_Field>
OPLS3e

> <r_lp_Energy>
28.329821

> <b_lp_Chiralities_Consistent>
1

> <s_lp_Variant>
sdf/inactives_sanitized.sdf:603-1

$$$$
sdf/inactives_sanitized.sdf:604
                    3D
 Schrodinger Suite 2020-1.
 75 77  0  0  1  0            999 V2000
    1.4818   -0.8938   -2.2374 C   0  0  0  0  0  0
    1.9982    0.0437   -1.0594 C   0  0  0  0  0  0
   -3.2889    1.9293    4.2563 C   0  0  0  0  0  0
   -1.9069    2.0254    4.1600 N   0  0  0  0  0  0
   -3.7548    3.2010    4.5134 N   0  3  0  0  0  0
    1.9172   -0.4826   -3.4434 N   0  0  0  0  0  0
   -0.8296    1.0591   -0.2362 C   0  0  0  0  0  0
   -0.1414   -0.0629    0.2197 N   0  0  0  0  0  0
    1.3349   -0.0999    0.3174 C   0  0  1  0  0  0
   -2.6991    4.0884    4.5860 C   0  0  0  0  0  0
   -1.5452    3.3498    4.3731 C   0  0  0  0  0  0
    1.5915   -1.1085   -4.7305 C   0  0  1  0  0  0
    2.9132    0.8469   -1.2584 O   0  0  0  0  0  0
    0.7558   -1.8662   -2.0249 O   0  0  0  0  0  0
   -0.3342    2.1135   -0.6404 O   0  0  0  0  0  0
   -4.2936    0.4942    4.0684 S   0  0  0  0  0  0
   -2.1483    0.8192   -0.1356 O   0  0  0  0  0  0
   -4.5414    1.3674   -0.1161 C   0  0  0  0  0  0
    1.8178   -0.1772   -5.9265 C   0  0  0  0  0  0
   -3.1052    1.8082   -0.4925 C   0  0  0  0  0  0
   -4.1126    0.3126    2.2689 C   0  0  0  0  0  0
   -0.9716    0.9347    3.9328 C   0  0  0  0  0  0
   -4.7889    1.4149    1.4238 C   0  0  0  0  0  0
    1.8414   -1.3798    1.0331 C   0  0  0  0  0  0
   -6.3551    0.8133   -1.1419 C   0  0  0  0  0  0
   -5.6210    2.1398   -0.9071 C   0  0  0  0  0  0
   -5.0394    0.0899   -0.8289 C   0  0  0  0  0  0
    2.3220   -2.4525   -4.9273 C   0  0  0  0  0  0
    0.9847   -0.2917   -7.0453 C   0  0  0  0  0  0
    2.8199    0.8032   -5.9111 C   0  0  0  0  0  0
    1.3178   -1.5267    2.4770 C   0  0  0  0  0  0
    1.8862   -2.7599    3.1997 C   0  0  0  0  0  0
    1.3640   -2.9009    4.6359 C   0  0  0  0  0  0
    1.1541    0.5549   -8.1376 C   0  0  0  0  0  0
    2.9895    1.6495   -7.0035 C   0  0  0  0  0  0
    2.1561    1.5216   -8.1119 C   0  0  0  0  0  0
    2.4993    0.3416   -3.4852 H   0  0  0  0  0  0
   -0.6540   -0.7206    0.7886 H   0  0  0  0  0  0
    1.6287    0.7378    0.9544 H   0  0  0  0  0  0
   -2.8662    5.1379    4.7832 H   0  0  0  0  0  0
   -0.5053    3.6440    4.3528 H   0  0  0  0  0  0
    0.5172   -1.3098   -4.7080 H   0  0  0  0  0  0
   -3.0344    1.9790   -1.5683 H   0  0  0  0  0  0
   -2.8712    2.7565   -0.0051 H   0  0  0  0  0  0
   -3.0485    0.2498    2.0585 H   0  0  0  0  0  0
   -4.5201   -0.6614    1.9993 H   0  0  0  0  0  0
   -0.0384    1.1248    4.4646 H   0  0  0  0  0  0
   -0.7636    0.8652    2.8659 H   0  0  0  0  0  0
   -1.3969   -0.0098    4.2734 H   0  0  0  0  0  0
   -5.8603    1.3643    1.6246 H   0  0  0  0  0  0
   -4.4827    2.3958    1.7888 H   0  0  0  0  0  0
    1.5514   -2.2691    0.4708 H   0  0  0  0  0  0
    2.9332   -1.3727    1.0615 H   0  0  0  0  0  0
   -6.7434    0.6642   -2.1501 H   0  0  0  0  0  0
   -7.1432    0.6165   -0.4129 H   0  0  0  0  0  0
   -6.1780    2.8928   -0.3475 H   0  0  0  0  0  0
   -5.2578    2.5914   -1.8329 H   0  0  0  0  0  0
   -5.1339   -0.8045   -0.2134 H   0  0  0  0  0  0
   -4.4677   -0.1625   -1.7248 H   0  0  0  0  0  0
    2.0165   -2.9364   -5.8557 H   0  0  0  0  0  0
    2.1077   -3.1498   -4.1167 H   0  0  0  0  0  0
    3.4033   -2.3143   -4.9652 H   0  0  0  0  0  0
    0.2033   -1.0375   -7.0702 H   0  0  0  0  0  0
    3.4755    0.9110   -5.0592 H   0  0  0  0  0  0
    1.5710   -0.6311    3.0462 H   0  0  0  0  0  0
    0.2288   -1.5926    2.4685 H   0  0  0  0  0  0
    1.6366   -3.6616    2.6386 H   0  0  0  0  0  0
    2.9755   -2.7043    3.2193 H   0  0  0  0  0  0
    1.7859   -3.7829    5.1183 H   0  0  0  0  0  0
    0.2783   -3.0015    4.6539 H   0  0  0  0  0  0
    1.6307   -2.0338    5.2413 H   0  0  0  0  0  0
    0.5104    0.4637   -9.0001 H   0  0  0  0  0  0
    3.7637    2.4025   -6.9914 H   0  0  0  0  0  0
    2.2873    2.1791   -8.9586 H   0  0  0  0  0  0
   -4.7282    3.4457    4.6321 H   0  0  0  0  0  0
  1  2  1  0  0  0
  1  6  1  0  0  0
  1 14  2  0  0  0
  2  9  1  0  0  0
  2 13  2  0  0  0
  3 16  1  0  0  0
  3  4  1  0  0  0
  3  5  2  0  0  0
  4 11  1  0  0  0
  4 22  1  0  0  0
  5 10  1  0  0  0
  5 75  1  0  0  0
  6 12  1  0  0  0
  6 37  1  0  0  0
  7  8  1  0  0  0
  7 15  2  0  0  0
  7 17  1  0  0  0
  8  9  1  0  0  0
  8 38  1  0  0  0
  9 24  1  0  0  0
  9 39  1  0  0  0
 10 11  2  0  0  0
 10 40  1  0  0  0
 11 41  1  0  0  0
 12 19  1  0  0  0
 12 28  1  0  0  0
 12 42  1  0  0  0
 16 21  1  0  0  0
 17 20  1  0  0  0
 18 20  1  0  0  0
 18 23  1  0  0  0
 18 26  1  0  0  0
 18 27  1  0  0  0
 19 29  2  0  0  0
 19 30  1  0  0  0
 20 43  1  0  0  0
 20 44  1  0  0  0
 21 23  1  0  0  0
 21 45  1  0  0  0
 21 46  1  0  0  0
 22 47  1  0  0  0
 22 48  1  0  0  0
 22 49  1  0  0  0
 23 50  1  0  0  0
 23 51  1  0  0  0
 24 31  1  0  0  0
 24 52  1  0  0  0
 24 53  1  0  0  0
 25 27  1  0  0  0
 25 26  1  0  0  0
 25 54  1  0  0  0
 25 55  1  0  0  0
 26 56  1  0  0  0
 26 57  1  0  0  0
 27 58  1  0  0  0
 27 59  1  0  0  0
 28 60  1  0  0  0
 28 61  1  0  0  0
 28 62  1  0  0  0
 29 34  1  0  0  0
 29 63  1  0  0  0
 30 35  2  0  0  0
 30 64  1  0  0  0
 31 32  1  0  0  0
 31 65  1  0  0  0
 31 66  1  0  0  0
 32 33  1  0  0  0
 32 67  1  0  0  0
 32 68  1  0  0  0
 33 69  1  0  0  0
 33 70  1  0  0  0
 33 71  1  0  0  0
 34 36  2  0  0  0
 34 72  1  0  0  0
 35 36  1  0  0  0
 35 73  1  0  0  0
 36 74  1  0  0  0
M  CHG  1   5   1
M  END
> <chembl_id>
CHEMBL184193

> <chembl_pref_name>
None

> <i_m_ct_stereo_status>
1

> <s_m_source_file>
sdf/inactives_sanitized.sdf

> <i_m_source_file_index>
604

> <i_lp_mmshare_version>
49012

> <i_f3d_flags>
0

> <s_epik_input>
W2NIXTFbY0hdW2NIXVtjSF1bY0hdYzFbQ0BASF0oW0NIM10pW05IXUMoPU8pQyg9TylbQ0BIXShbQ0gyXVtDSDJdW0NIMl1bQ0gzXSlbTkhdQyg9TylPW0NIMl1DMihbQ0gyXVtDSDJdW0NIMl0yKVtDSDJdW0NIMl1TYzNuKFtDSDNdKVtjSF1bY0hdbjM=

> <s_epik_cmdline>
J2VwaWtfcHl0aG9uJywgJy1waHQnLCAnMC41JywgJy1waCcsICc3LjUnLCAnLW50JywgJy1tYScsICcyMDAnLCAnLWltYWUnLCAnPGluZmlsZS5tYWU+JywgJy1vbWFlJywgJzxvdXRmaWxlLm1hZT4n

> <r_lp_tautomer_probability>
0.99990000499975

> <r_epik_Ionization_Penalty>
  0.2409

> <r_epik_Ionization_Penalty_Charging>
  0.0000

> <r_epik_Ionization_Penalty_Neutral>
  0.2409

> <r_epik_State_Penalty>
  0.2319

> <r_epik_Charging_Adjusted_Penalty>
0.231900562014034

> <i_epik_Tot_Q>
1

> <i_epik_Tot_abs_Q>
1

> <s_epik_Chemistry_Notes>
This compound has an ester and may undergo hydrolysis at high or low pH.

> <s_lp_Force_Field>
OPLS3e

> <r_lp_Energy>
49.412064

> <b_lp_Chiralities_Consistent>
1

> <s_lp_Variant>
sdf/inactives_sanitized.sdf:604-1

$$$$
sdf/inactives_sanitized.sdf:604
                    3D
 Schrodinger Suite 2020-1.
 74 76  0  0  1  0            999 V2000
    1.4754   -0.8603   -2.4787 C   0  0  0  0  0  0
    2.0288    0.0822   -1.3211 C   0  0  0  0  0  0
   -5.4810   -0.4181    4.0705 C   0  0  0  0  0  0
   -6.5430   -0.2777    4.9392 N   0  0  0  0  0  0
   -5.7092   -1.3454    3.1634 N   0  0  0  0  0  0
    1.8993   -0.4734   -3.6969 N   0  0  0  0  0  0
   -0.7760    1.0571   -0.4010 C   0  0  0  0  0  0
   -0.0545   -0.0421    0.0593 N   0  0  0  0  0  0
    1.4254   -0.0719    0.0822 C   0  0  1  0  0  0
   -6.9129   -1.8177    3.4278 C   0  0  0  0  0  0
   -7.4792   -1.1871    4.5200 C   0  0  0  0  0  0
    1.5481   -1.1132   -4.9712 C   0  0  1  0  0  0
    2.9276    0.8944   -1.5553 O   0  0  0  0  0  0
    0.7382   -1.8186   -2.2426 O   0  0  0  0  0  0
   -0.3157    2.0912   -0.8911 O   0  0  0  0  0  0
   -4.0028    0.5507    4.1569 S   0  0  0  0  0  0
   -2.0824    0.8196   -0.1983 O   0  0  0  0  0  0
   -4.4612    1.3507   -0.0064 C   0  0  0  0  0  0
    1.7977   -0.2197   -6.1929 C   0  0  0  0  0  0
   -3.0703    1.7895   -0.5262 C   0  0  0  0  0  0
   -3.6028    0.6736    2.3861 C   0  0  0  0  0  0
   -6.6657    0.6485    6.0524 C   0  0  0  0  0  0
   -4.5948    1.4992    1.5394 C   0  0  0  0  0  0
    1.9741   -1.3516    0.7683 C   0  0  0  0  0  0
   -6.3265    0.6571   -0.8384 C   0  0  0  0  0  0
   -5.6274    2.0214   -0.7646 C   0  0  0  0  0  0
   -4.9665    0.0019   -0.5657 C   0  0  0  0  0  0
    2.2321   -2.4860   -5.1393 C   0  0  0  0  0  0
    1.0369   -0.4273   -7.3495 C   0  0  0  0  0  0
    2.7445    0.8146   -6.1699 C   0  0  0  0  0  0
    1.4965   -1.5284    2.2252 C   0  0  0  0  0  0
    2.1140   -2.7583    2.9135 C   0  0  0  0  0  0
    1.6287   -2.9406    4.3580 C   0  0  0  0  0  0
    1.2243    0.3777   -8.4700 C   0  0  0  0  0  0
    2.9329    1.6189   -7.2907 C   0  0  0  0  0  0
    2.1722    1.3971   -8.4358 C   0  0  0  0  0  0
    2.4917    0.3420   -3.7582 H   0  0  0  0  0  0
   -0.5303   -0.6711    0.6893 H   0  0  0  0  0  0
    1.7405    0.7653    0.7095 H   0  0  0  0  0  0
   -7.3627   -2.6009    2.8354 H   0  0  0  0  0  0
   -8.4296   -1.2972    5.0215 H   0  0  0  0  0  0
    0.4670   -1.2734   -4.9410 H   0  0  0  0  0  0
   -3.0901    1.9044   -1.6114 H   0  0  0  0  0  0
   -2.8081    2.7624   -0.1068 H   0  0  0  0  0  0
   -2.6107    1.1198    2.3206 H   0  0  0  0  0  0
   -3.4990   -0.3348    1.9852 H   0  0  0  0  0  0
   -7.6723    0.6002    6.4694 H   0  0  0  0  0  0
   -6.4714    1.6643    5.7068 H   0  0  0  0  0  0
   -5.9510    0.3736    6.8283 H   0  0  0  0  0  0
   -5.6112    1.2341    1.8331 H   0  0  0  0  0  0
   -4.4920    2.5512    1.8084 H   0  0  0  0  0  0
    1.6821   -2.2388    0.2037 H   0  0  0  0  0  0
    3.0660   -1.3261    0.7636 H   0  0  0  0  0  0
   -6.7786    0.4137   -1.8004 H   0  0  0  0  0  0
   -7.0529    0.4963   -0.0397 H   0  0  0  0  0  0
   -6.1676    2.7961   -0.2188 H   0  0  0  0  0  0
   -5.3539    2.4107   -1.7474 H   0  0  0  0  0  0
   -4.9826   -0.8312    0.1381 H   0  0  0  0  0  0
   -4.4539   -0.3153   -1.4764 H   0  0  0  0  0  0
    1.9067   -2.9824   -6.0541 H   0  0  0  0  0  0
    1.9987   -3.1570   -4.3123 H   0  0  0  0  0  0
    3.3172   -2.3847   -5.1841 H   0  0  0  0  0  0
    0.2985   -1.2155   -7.3823 H   0  0  0  0  0  0
    3.3445    0.9985   -5.2907 H   0  0  0  0  0  0
    1.7442   -0.6342    2.7995 H   0  0  0  0  0  0
    0.4095   -1.6189    2.2476 H   0  0  0  0  0  0
    1.8772   -3.6570    2.3418 H   0  0  0  0  0  0
    3.2016   -2.6725    2.9112 H   0  0  0  0  0  0
    2.0887   -3.8169    4.8156 H   0  0  0  0  0  0
    0.5471   -3.0756    4.3982 H   0  0  0  0  0  0
    1.8810   -2.0757    4.9723 H   0  0  0  0  0  0
    0.6360    0.2132   -9.3607 H   0  0  0  0  0  0
    3.6658    2.4118   -7.2715 H   0  0  0  0  0  0
    2.3177    2.0221   -9.3046 H   0  0  0  0  0  0
  1  2  1  0  0  0
  1  6  1  0  0  0
  1 14  2  0  0  0
  2  9  1  0  0  0
  2 13  2  0  0  0
  3 16  1  0  0  0
  3  4  1  0  0  0
  3  5  2  0  0  0
  4 11  1  0  0  0
  4 22  1  0  0  0
  5 10  1  0  0  0
  6 12  1  0  0  0
  6 37  1  0  0  0
  7  8  1  0  0  0
  7 15  2  0  0  0
  7 17  1  0  0  0
  8  9  1  0  0  0
  8 38  1  0  0  0
  9 24  1  0  0  0
  9 39  1  0  0  0
 10 11  2  0  0  0
 10 40  1  0  0  0
 11 41  1  0  0  0
 12 19  1  0  0  0
 12 28  1  0  0  0
 12 42  1  0  0  0
 16 21  1  0  0  0
 17 20  1  0  0  0
 18 20  1  0  0  0
 18 23  1  0  0  0
 18 26  1  0  0  0
 18 27  1  0  0  0
 19 29  2  0  0  0
 19 30  1  0  0  0
 20 43  1  0  0  0
 20 44  1  0  0  0
 21 23  1  0  0  0
 21 45  1  0  0  0
 21 46  1  0  0  0
 22 47  1  0  0  0
 22 48  1  0  0  0
 22 49  1  0  0  0
 23 50  1  0  0  0
 23 51  1  0  0  0
 24 31  1  0  0  0
 24 52  1  0  0  0
 24 53  1  0  0  0
 25 27  1  0  0  0
 25 26  1  0  0  0
 25 54  1  0  0  0
 25 55  1  0  0  0
 26 56  1  0  0  0
 26 57  1  0  0  0
 27 58  1  0  0  0
 27 59  1  0  0  0
 28 60  1  0  0  0
 28 61  1  0  0  0
 28 62  1  0  0  0
 29 34  1  0  0  0
 29 63  1  0  0  0
 30 35  2  0  0  0
 30 64  1  0  0  0
 31 32  1  0  0  0
 31 65  1  0  0  0
 31 66  1  0  0  0
 32 33  1  0  0  0
 32 67  1  0  0  0
 32 68  1  0  0  0
 33 69  1  0  0  0
 33 70  1  0  0  0
 33 71  1  0  0  0
 34 36  2  0  0  0
 34 72  1  0  0  0
 35 36  1  0  0  0
 35 73  1  0  0  0
 36 74  1  0  0  0
M  END
> <chembl_id>
CHEMBL184193

> <chembl_pref_name>
None

> <i_m_ct_stereo_status>
1

> <s_m_source_file>
sdf/inactives_sanitized.sdf

> <i_m_source_file_index>
604

> <i_lp_mmshare_version>
49012

> <i_f3d_flags>
0

> <s_epik_input>
W2NIXTFbY0hdW2NIXVtjSF1bY0hdYzFbQ0BASF0oW0NIM10pW05IXUMoPU8pQyg9TylbQ0BIXShbQ0gyXVtDSDJdW0NIMl1bQ0gzXSlbTkhdQyg9TylPW0NIMl1DMihbQ0gyXVtDSDJdW0NIMl0yKVtDSDJdW0NIMl1TYzNuKFtDSDNdKVtjSF1bY0hdbjM=

> <s_epik_cmdline>
J2VwaWtfcHl0aG9uJywgJy1waHQnLCAnMC41JywgJy1waCcsICc3LjUnLCAnLW50JywgJy1tYScsICcyMDAnLCAnLWltYWUnLCAnPGluZmlsZS5tYWU+JywgJy1vbWFlJywgJzxvdXRmaWxlLm1hZT4n

> <r_lp_tautomer_probability>
0.99990000499975

> <r_epik_Ionization_Penalty>
  0.6495

> <r_epik_Ionization_Penalty_Charging>
  0.6495

> <r_epik_Ionization_Penalty_Neutral>
  0.0000

> <r_epik_State_Penalty>
  0.6679

> <r_epik_Charging_Adjusted_Penalty>
1.31747820191557

> <i_epik_Tot_Q>
0

> <i_epik_Tot_abs_Q>
0

> <s_epik_Chemistry_Notes>
This compound has an ester and may undergo hydrolysis at high or low pH.

> <s_lp_Force_Field>
OPLS3e

> <r_lp_Energy>
45.185731

> <b_lp_Chiralities_Consistent>
1

> <s_lp_Variant>
sdf/inactives_sanitized.sdf:604-2

$$$$
sdf/inactives_sanitized.sdf:605
                    3D
 Schrodinger Suite 2020-1.
 63 64  0  0  1  0            999 V2000
    3.8553    1.0227   -3.9109 C   0  0  0  0  0  0
    2.8681    0.6971   -1.7161 C   0  0  0  0  0  0
    2.7017   -0.4429   -0.6174 C   0  0  0  0  0  0
    3.5603    0.2624   -2.7908 N   0  0  0  0  0  0
    4.5430    0.5068   -4.9885 N   0  0  0  0  0  0
    4.7530    1.4129   -5.9560 N   0  0  0  0  0  0
    3.5963    2.3432   -4.2636 C   0  0  0  0  0  0
   -0.4023    0.9721    0.4964 C   0  0  0  0  0  0
    0.4754   -0.0202    0.0784 N   0  0  0  0  0  0
    1.8506   -0.0831    0.6002 C   0  0  1  0  0  0
    4.1740    2.5088   -5.5245 C   0  0  0  0  0  0
    3.2768   -1.5281   -0.7526 O   0  0  0  0  0  0
    2.3945    1.8220   -1.5420 O   0  0  0  0  0  0
   -0.1452    1.9089    1.2568 O   0  0  0  0  0  0
   -1.6066    0.7378   -0.0537 O   0  0  0  0  0  0
   -4.0386    1.0346   -0.3968 C   0  0  0  0  0  0
   -2.7205    1.5764    0.2326 C   0  0  0  0  0  0
    5.1091   -0.8261   -5.1524 C   0  0  0  0  0  0
    2.0059   -1.1186    1.7496 C   0  0  0  0  0  0
   -4.5508   -0.2882    0.2603 C   0  0  0  0  0  0
   -5.1862    2.0761   -0.2081 C   0  0  0  0  0  0
   -3.9119    0.8284   -1.9386 C   0  0  0  0  0  0
    1.2110   -0.7684    3.0241 C   0  0  0  0  0  0
    1.4609   -1.7566    4.1766 C   0  0  0  0  0  0
   -3.6482   -1.5325    0.1515 C   0  0  0  0  0  0
    0.6653   -1.4107    5.4426 C   0  0  0  0  0  0
   -4.9114    3.4282   -0.9074 C   0  0  0  0  0  0
   -3.5681    2.1365   -2.6867 C   0  0  0  0  0  0
   -4.6182    3.2354   -2.4118 C   0  0  0  0  0  0
    3.8886   -0.6925   -2.7897 H   0  0  0  0  0  0
    3.0694    3.0915   -3.6902 H   0  0  0  0  0  0
    0.1119   -0.8169   -0.4239 H   0  0  0  0  0  0
    2.1912    0.8856    0.9754 H   0  0  0  0  0  0
    4.1736    3.4173   -6.1087 H   0  0  0  0  0  0
   -2.4860    2.5752   -0.1335 H   0  0  0  0  0  0
   -2.8471    1.6627    1.3133 H   0  0  0  0  0  0
    4.5602   -1.5459   -4.5448 H   0  0  0  0  0  0
    6.1536   -0.8129   -4.8402 H   0  0  0  0  0  0
    5.0471   -1.1350   -6.1971 H   0  0  0  0  0  0
    1.6867   -2.1049    1.4059 H   0  0  0  0  0  0
    3.0617   -1.2065    2.0142 H   0  0  0  0  0  0
   -4.7388   -0.1085    1.3203 H   0  0  0  0  0  0
   -5.5224   -0.5534   -0.1608 H   0  0  0  0  0  0
   -6.1315    1.6765   -0.5817 H   0  0  0  0  0  0
   -5.3510    2.2587    0.8554 H   0  0  0  0  0  0
   -3.1411    0.0911   -2.1641 H   0  0  0  0  0  0
   -4.8374    0.4158   -2.3450 H   0  0  0  0  0  0
    1.4728    0.2397    3.3494 H   0  0  0  0  0  0
    0.1438   -0.7541    2.7991 H   0  0  0  0  0  0
    1.2002   -2.7665    3.8564 H   0  0  0  0  0  0
    2.5243   -1.7772    4.4187 H   0  0  0  0  0  0
   -4.1497   -2.4017    0.5777 H   0  0  0  0  0  0
   -2.7151   -1.4094    0.7000 H   0  0  0  0  0  0
   -3.4076   -1.7778   -0.8824 H   0  0  0  0  0  0
    0.8654   -2.1306    6.2367 H   0  0  0  0  0  0
   -0.4082   -1.4202    5.2507 H   0  0  0  0  0  0
    0.9301   -0.4216    5.8183 H   0  0  0  0  0  0
   -5.7748    4.0836   -0.7867 H   0  0  0  0  0  0
   -4.0829    3.9497   -0.4284 H   0  0  0  0  0  0
   -2.5771    2.4885   -2.3975 H   0  0  0  0  0  0
   -3.5123    1.9442   -3.7588 H   0  0  0  0  0  0
   -4.2945    4.1794   -2.8519 H   0  0  0  0  0  0
   -5.5464    2.9700   -2.9204 H   0  0  0  0  0  0
  1  4  1  0  0  0
  1  5  1  0  0  0
  1  7  2  0  0  0
  2  4  1  0  0  0
  2  3  1  0  0  0
  2 13  2  0  0  0
  3 10  1  0  0  0
  3 12  2  0  0  0
  4 30  1  0  0  0
  5  6  1  0  0  0
  5 18  1  0  0  0
  6 11  2  0  0  0
  7 11  1  0  0  0
  7 31  1  0  0  0
  8  9  1  0  0  0
  8 14  2  0  0  0
  8 15  1  0  0  0
  9 10  1  0  0  0
  9 32  1  0  0  0
 10 19  1  0  0  0
 10 33  1  0  0  0
 11 34  1  0  0  0
 15 17  1  0  0  0
 16 17  1  0  0  0
 16 20  1  0  0  0
 16 21  1  0  0  0
 16 22  1  0  0  0
 17 35  1  0  0  0
 17 36  1  0  0  0
 18 37  1  0  0  0
 18 38  1  0  0  0
 18 39  1  0  0  0
 19 23  1  0  0  0
 19 40  1  0  0  0
 19 41  1  0  0  0
 20 25  1  0  0  0
 20 42  1  0  0  0
 20 43  1  0  0  0
 21 27  1  0  0  0
 21 44  1  0  0  0
 21 45  1  0  0  0
 22 28  1  0  0  0
 22 46  1  0  0  0
 22 47  1  0  0  0
 23 24  1  0  0  0
 23 48  1  0  0  0
 23 49  1  0  0  0
 24 26  1  0  0  0
 24 50  1  0  0  0
 24 51  1  0  0  0
 25 52  1  0  0  0
 25 53  1  0  0  0
 25 54  1  0  0  0
 26 55  1  0  0  0
 26 56  1  0  0  0
 26 57  1  0  0  0
 27 29  1  0  0  0
 27 58  1  0  0  0
 27 59  1  0  0  0
 28 29  1  0  0  0
 28 60  1  0  0  0
 28 61  1  0  0  0
 29 62  1  0  0  0
 29 63  1  0  0  0
M  END
> <chembl_id>
CHEMBL184004

> <chembl_pref_name>
None

> <i_m_ct_stereo_status>
1

> <s_m_source_file>
sdf/inactives_sanitized.sdf

> <i_m_source_file_index>
605

> <i_lp_mmshare_version>
49012

> <i_f3d_flags>
0

> <s_epik_input>
W2NIXTFbY0hdbm4oW0NIM10pYzFbTkhdQyg9TylDKD1PKVtDQEhdKFtDSDJdW0NIMl1bQ0gyXVtDSDNdKVtOSF1DKD1PKU9bQ0gyXUMyKFtDSDJdW0NIM10pW0NIMl1bQ0gyXVtDSDJdW0NIMl1bQ0gyXTI=

> <s_epik_cmdline>
J2VwaWtfcHl0aG9uJywgJy1waHQnLCAnMC41JywgJy1waCcsICc3LjUnLCAnLW50JywgJy1tYScsICcyMDAnLCAnLWltYWUnLCAnPGluZmlsZS5tYWU+JywgJy1vbWFlJywgJzxvdXRmaWxlLm1hZT4n

> <r_lp_tautomer_probability>
1

> <r_epik_Ionization_Penalty>
  0.0000

> <r_epik_Ionization_Penalty_Charging>
  0.0000

> <r_epik_Ionization_Penalty_Neutral>
  0.0000

> <r_epik_State_Penalty>
 -0.0000

> <r_epik_Charging_Adjusted_Penalty>
0

> <i_epik_Tot_Q>
0

> <i_epik_Tot_abs_Q>
0

> <s_epik_Chemistry_Notes>
This compound has an ester and may undergo hydrolysis at high or low pH.

> <s_lp_Force_Field>
OPLS3e

> <r_lp_Energy>
38.923121

> <b_lp_Chiralities_Consistent>
1

> <s_lp_Variant>
sdf/inactives_sanitized.sdf:605-1

$$$$
sdf/inactives_sanitized.sdf:606
                    3D
 Schrodinger Suite 2020-1.
 60 64  0  0  1  0            999 V2000
   -1.9309    8.1174   -3.5339 C   0  0  0  0  0  0
   -2.4546    8.3472   -2.1885 N   0  0  0  0  0  0
   -3.0341    9.5215   -1.8370 C   0  0  0  0  0  0
   -3.2005   10.5287   -2.5253 O   0  0  0  0  0  0
   -3.4656    9.3784   -0.3756 C   0  0  0  0  0  0
   -3.0356    7.9904   -0.0283 C   0  0  0  0  0  0
   -3.1397    7.2592    1.1531 C   0  0  0  0  0  0
   -2.6418    5.9549    1.1974 C   0  0  0  0  0  0
   -2.0387    5.3646    0.0723 C   0  0  0  0  0  0
   -1.9457    6.1250   -1.1058 C   0  0  0  0  0  0
   -2.4459    7.4280   -1.1412 C   0  0  0  0  0  0
   -1.5093    3.9680    0.1265 C   0  0  0  0  0  0
   -1.5735    3.1342   -0.9985 C   0  0  0  0  0  0
   -1.0714    1.8371   -0.9550 C   0  0  0  0  0  0
   -0.4914    1.3540    0.2180 C   0  0  0  0  0  0
    0.1036   -0.0481    0.2561 C   0  0  0  0  0  0
    1.6433   -0.0717    0.1267 C   0  0  2  0  0  0
    2.1205    0.5343   -1.1199 N   0  0  0  0  0  0
    2.5967    1.7868   -1.2471 C   0  0  0  0  0  0
    2.7308    2.5458   -0.2837 O   0  0  0  0  0  0
    2.9829    2.2156   -2.6867 C   0  0  1  0  0  0
    3.0548    3.6962   -2.7768 N   0  0  1  0  0  0
    4.3222    4.1675   -3.3659 C   0  0  2  0  0  0
    4.4765    3.5176   -4.7696 C   0  0  0  0  0  0
    4.4857    1.9657   -4.6518 C   0  0  0  0  0  0
    4.3161    1.5367   -3.1668 C   0  0  1  0  0  0
    5.4957    2.1415   -2.3466 C   0  0  0  0  0  0
    5.4857    3.6922   -2.4535 C   0  0  0  0  0  0
    2.1840   -1.4350    0.2512 C   0  0  0  0  0  0
    2.6088   -2.5071    0.3485 N   0  0  0  0  0  0
   -0.4260    2.1683    1.3480 C   0  0  0  0  0  0
   -0.9327    3.4639    1.3007 C   0  0  0  0  0  0
   -2.3706    7.2131   -3.9554 H   0  0  0  0  0  0
   -0.8502    7.9797   -3.4946 H   0  0  0  0  0  0
   -2.1422    8.9411   -4.2174 H   0  0  0  0  0  0
   -2.9624   10.1290    0.2349 H   0  0  0  0  0  0
   -4.5454    9.5060   -0.2925 H   0  0  0  0  0  0
   -3.6002    7.6848    2.0324 H   0  0  0  0  0  0
   -2.7397    5.3992    2.1184 H   0  0  0  0  0  0
   -1.4765    5.7061   -1.9838 H   0  0  0  0  0  0
   -2.0188    3.4847   -1.9181 H   0  0  0  0  0  0
   -1.1223    1.2159   -1.8374 H   0  0  0  0  0  0
   -0.1974   -0.5289    1.1883 H   0  0  0  0  0  0
   -0.3460   -0.6558   -0.5315 H   0  0  0  0  0  0
    2.0684    0.4525    0.9856 H   0  0  0  0  0  0
    1.9545    0.0021   -1.9614 H   0  0  0  0  0  0
    2.1478    1.8875   -3.3092 H   0  0  0  0  0  0
    2.3163    4.0107   -3.3894 H   0  0  0  0  0  0
    4.3087    5.2555   -3.4395 H   0  0  0  0  0  0
    3.6667    3.8414   -5.4254 H   0  0  0  0  0  0
    5.3987    3.8625   -5.2393 H   0  0  0  0  0  0
    3.6890    1.5366   -5.2616 H   0  0  0  0  0  0
    5.4170    1.5636   -5.0531 H   0  0  0  0  0  0
    4.2826    0.4496   -3.0767 H   0  0  0  0  0  0
    5.4398    1.8327   -1.3019 H   0  0  0  0  0  0
    6.4439    1.7489   -2.7166 H   0  0  0  0  0  0
    5.3884    4.1357   -1.4611 H   0  0  0  0  0  0
    6.4385    4.0467   -2.8488 H   0  0  0  0  0  0
    0.0305    1.8057    2.2576 H   0  0  0  0  0  0
   -0.8551    4.0815    2.1836 H   0  0  0  0  0  0
  1  2  1  0  0  0
  1 33  1  0  0  0
  1 34  1  0  0  0
  1 35  1  0  0  0
  2  3  1  0  0  0
  2 11  1  0  0  0
  3  4  2  0  0  0
  3  5  1  0  0  0
  5  6  1  0  0  0
  5 36  1  0  0  0
  5 37  1  0  0  0
  6  7  2  0  0  0
  6 11  1  0  0  0
  7  8  1  0  0  0
  7 38  1  0  0  0
  8  9  2  0  0  0
  8 39  1  0  0  0
  9 10  1  0  0  0
  9 12  1  0  0  0
 10 11  2  0  0  0
 10 40  1  0  0  0
 12 13  2  0  0  0
 12 32  1  0  0  0
 13 14  1  0  0  0
 13 41  1  0  0  0
 14 15  2  0  0  0
 14 42  1  0  0  0
 15 16  1  0  0  0
 15 31  1  0  0  0
 16 17  1  0  0  0
 16 43  1  0  0  0
 16 44  1  0  0  0
 17 18  1  0  0  0
 17 29  1  0  0  0
 17 45  1  0  0  0
 18 19  1  0  0  0
 18 46  1  0  0  0
 19 20  2  0  0  0
 19 21  1  0  0  0
 21 22  1  0  0  0
 21 26  1  0  0  0
 21 47  1  0  0  0
 22 23  1  0  0  0
 22 48  1  0  0  0
 23 24  1  0  0  0
 23 28  1  0  0  0
 23 49  1  0  0  0
 24 25  1  0  0  0
 24 50  1  0  0  0
 24 51  1  0  0  0
 25 26  1  0  0  0
 25 52  1  0  0  0
 25 53  1  0  0  0
 26 27  1  0  0  0
 26 54  1  0  0  0
 27 28  1  0  0  0
 27 55  1  0  0  0
 27 56  1  0  0  0
 28 57  1  0  0  0
 28 58  1  0  0  0
 29 30  3  0  0  0
 31 32  2  0  0  0
 31 59  1  0  0  0
 32 60  1  0  0  0
M  END
> <chembl_id>
CHEMBL3695332

> <chembl_pref_name>
None

> <i_m_ct_stereo_status>
1

> <s_m_source_file>
sdf/inactives_sanitized.sdf

> <i_m_source_file_index>
606

> <i_lp_mmshare_version>
49012

> <i_f3d_flags>
0

> <s_epik_input>
Tz1DKFtDSDJdMSlOKFtDSDNdKWMoYzEyKVtjSF1jKFtjSF1bY0hdMiktYzNbY0hdW2NIXWMoW2NIXVtjSF0zKVtDSDJdW0NAQEhdKEMjTilbTkhdQyg9TylbQ0BASF0oW05IXVtDQEhdNDUpW0NAQEhdKFtDSDJdW0NIMl00KVtDSDJdW0NIMl01

> <s_epik_cmdline>
J2VwaWtfcHl0aG9uJywgJy1waHQnLCAnMC41JywgJy1waCcsICc3LjUnLCAnLW50JywgJy1tYScsICcyMDAnLCAnLWltYWUnLCAnPGluZmlsZS5tYWU+JywgJy1vbWFlJywgJzxvdXRmaWxlLm1hZT4n

> <r_epik_Ionization_Penalty>
  0.4101

> <r_epik_Ionization_Penalty_Charging>
  0.0000

> <r_epik_Ionization_Penalty_Neutral>
  0.4101

> <r_epik_State_Penalty>
  0.4100

> <r_epik_Charging_Adjusted_Penalty>
0.410033589345069

> <i_epik_Tot_Q>
0

> <i_epik_Tot_abs_Q>
0

> <s_lp_Force_Field>
OPLS3e

> <r_lp_Energy>
35.932372

> <b_lp_Chiralities_Consistent>
1

> <s_lp_Variant>
sdf/inactives_sanitized.sdf:606-1

$$$$
sdf/inactives_sanitized.sdf:606
                    3D
 Schrodinger Suite 2020-1.
 61 65  0  0  1  0            999 V2000
    0.1758    9.0609    1.8373 C   0  0  0  0  0  0
   -1.0967    8.9500    1.1273 N   0  0  0  0  0  0
   -1.8587   10.0469    0.8974 C   0  0  0  0  0  0
   -1.6354   11.2136    1.2216 O   0  0  0  0  0  0
   -3.0958    9.5700    0.1347 C   0  0  0  0  0  0
   -2.8668    8.0998    0.0001 C   0  0  0  0  0  0
   -3.6283    7.1004   -0.6014 C   0  0  0  0  0  0
   -3.1677    5.7821   -0.5815 C   0  0  0  0  0  0
   -1.9528    5.4442    0.0396 C   0  0  0  0  0  0
   -1.2047    6.4704    0.6406 C   0  0  0  0  0  0
   -1.6689    7.7877    0.6102 C   0  0  0  0  0  0
   -1.4671    4.0322    0.0576 C   0  0  0  0  0  0
   -1.6695    3.1918   -1.0452 C   0  0  0  0  0  0
   -1.2010    1.8810   -1.0375 C   0  0  0  0  0  0
   -0.5261    1.3892    0.0801 C   0  0  0  0  0  0
    0.0281   -0.0304    0.0786 C   0  0  0  0  0  0
    1.5685   -0.0984   -0.0345 C   0  0  2  0  0  0
    2.0884    0.5549   -1.2404 N   0  0  0  0  0  0
    2.5918    1.8014   -1.2953 C   0  0  0  0  0  0
    2.6961    2.5190   -0.2968 O   0  0  0  0  0  0
    3.0372    2.2781   -2.7014 C   0  0  1  0  0  0
    3.2876    3.8113   -2.5853 N   0  3  0  0  0  0
    4.7031    4.2166   -3.0622 C   0  0  2  0  0  0
    4.8372    3.7212   -4.5248 C   0  0  0  0  0  0
    4.6566    2.1776   -4.6034 C   0  0  0  0  0  0
    4.3447    1.5730   -3.2045 C   0  0  1  0  0  0
    5.5324    1.9364   -2.2598 C   0  0  0  0  0  0
    5.7115    3.4766   -2.1480 C   0  0  0  0  0  0
    2.0625   -1.4836    0.0247 C   0  0  0  0  0  0
    2.4515   -2.5725    0.0701 N   0  0  0  0  0  0
   -0.3315    2.2091    1.1913 C   0  0  0  0  0  0
   -0.7948    3.5214    1.1762 C   0  0  0  0  0  0
    0.6740    8.0953    1.9177 H   0  0  0  0  0  0
    0.0200    9.4445    2.8464 H   0  0  0  0  0  0
    0.8481    9.7419    1.3140 H   0  0  0  0  0  0
   -3.9953    9.7938    0.7091 H   0  0  0  0  0  0
   -3.1489   10.0684   -0.8337 H   0  0  0  0  0  0
   -4.5684    7.3302   -1.0811 H   0  0  0  0  0  0
   -3.7740    5.0180   -1.0457 H   0  0  0  0  0  0
   -0.2632    6.2383    1.1157 H   0  0  0  0  0  0
   -2.1778    3.5559   -1.9261 H   0  0  0  0  0  0
   -1.3541    1.2557   -1.9051 H   0  0  0  0  0  0
   -0.2977   -0.5285    0.9933 H   0  0  0  0  0  0
   -0.4274   -0.6016   -0.7326 H   0  0  0  0  0  0
    2.0003    0.3633    0.8563 H   0  0  0  0  0  0
    1.9393    0.0605   -2.1081 H   0  0  0  0  0  0
    2.1858    2.1595   -3.3740 H   0  0  0  0  0  0
    2.6024    4.3055   -3.1389 H   0  0  0  0  0  0
    4.7621    5.3018   -2.9699 H   0  0  0  0  0  0
    4.1005    4.2179   -5.1584 H   0  0  0  0  0  0
    5.8125    4.0038   -4.9238 H   0  0  0  0  0  0
    3.8605    1.9284   -5.3071 H   0  0  0  0  0  0
    5.5594    1.7190   -5.0105 H   0  0  0  0  0  0
    4.2161    0.4914   -3.2744 H   0  0  0  0  0  0
    5.3907    1.4983   -1.2708 H   0  0  0  0  0  0
    6.4509    1.4872   -2.6411 H   0  0  0  0  0  0
    5.5777    3.7928   -1.1121 H   0  0  0  0  0  0
    6.7314    3.7554   -2.4169 H   0  0  0  0  0  0
    0.1899    1.8364    2.0611 H   0  0  0  0  0  0
   -0.6313    4.1389    2.0474 H   0  0  0  0  0  0
    3.1701    4.0919   -1.6213 H   0  0  0  0  0  0
  1  2  1  0  0  0
  1 33  1  0  0  0
  1 34  1  0  0  0
  1 35  1  0  0  0
  2  3  1  0  0  0
  2 11  1  0  0  0
  3  4  2  0  0  0
  3  5  1  0  0  0
  5  6  1  0  0  0
  5 36  1  0  0  0
  5 37  1  0  0  0
  6  7  2  0  0  0
  6 11  1  0  0  0
  7  8  1  0  0  0
  7 38  1  0  0  0
  8  9  2  0  0  0
  8 39  1  0  0  0
  9 10  1  0  0  0
  9 12  1  0  0  0
 10 11  2  0  0  0
 10 40  1  0  0  0
 12 13  2  0  0  0
 12 32  1  0  0  0
 13 14  1  0  0  0
 13 41  1  0  0  0
 14 15  2  0  0  0
 14 42  1  0  0  0
 15 16  1  0  0  0
 15 31  1  0  0  0
 16 17  1  0  0  0
 16 43  1  0  0  0
 16 44  1  0  0  0
 17 18  1  0  0  0
 17 29  1  0  0  0
 17 45  1  0  0  0
 18 19  1  0  0  0
 18 46  1  0  0  0
 19 20  2  0  0  0
 19 21  1  0  0  0
 21 22  1  0  0  0
 21 26  1  0  0  0
 21 47  1  0  0  0
 22 23  1  0  0  0
 22 48  1  0  0  0
 22 61  1  0  0  0
 23 24  1  0  0  0
 23 28  1  0  0  0
 23 49  1  0  0  0
 24 25  1  0  0  0
 24 50  1  0  0  0
 24 51  1  0  0  0
 25 26  1  0  0  0
 25 52  1  0  0  0
 25 53  1  0  0  0
 26 27  1  0  0  0
 26 54  1  0  0  0
 27 28  1  0  0  0
 27 55  1  0  0  0
 27 56  1  0  0  0
 28 57  1  0  0  0
 28 58  1  0  0  0
 29 30  3  0  0  0
 31 32  2  0  0  0
 31 59  1  0  0  0
 32 60  1  0  0  0
M  CHG  1  22   1
M  END
> <chembl_id>
CHEMBL3695332

> <chembl_pref_name>
None

> <i_m_ct_stereo_status>
1

> <s_m_source_file>
sdf/inactives_sanitized.sdf

> <i_m_source_file_index>
606

> <i_lp_mmshare_version>
49012

> <i_f3d_flags>
0

> <s_epik_input>
Tz1DKFtDSDJdMSlOKFtDSDNdKWMoYzEyKVtjSF1jKFtjSF1bY0hdMiktYzNbY0hdW2NIXWMoW2NIXVtjSF0zKVtDSDJdW0NAQEhdKEMjTilbTkhdQyg9TylbQ0BASF0oW05IXVtDQEhdNDUpW0NAQEhdKFtDSDJdW0NIMl00KVtDSDJdW0NIMl01

> <s_epik_cmdline>
J2VwaWtfcHl0aG9uJywgJy1waHQnLCAnMC41JywgJy1waCcsICc3LjUnLCAnLW50JywgJy1tYScsICcyMDAnLCAnLWltYWUnLCAnPGluZmlsZS5tYWU+JywgJy1vbWFlJywgJzxvdXRmaWxlLm1hZT4n

> <r_epik_Ionization_Penalty>
  0.4114

> <r_epik_Ionization_Penalty_Charging>
  0.4113

> <r_epik_Ionization_Penalty_Neutral>
  0.0002

> <r_epik_State_Penalty>
  0.4113

> <r_epik_Charging_Adjusted_Penalty>
0.822612897831462

> <i_epik_Tot_Q>
1

> <i_epik_Tot_abs_Q>
1

> <s_lp_Force_Field>
OPLS3e

> <r_lp_Energy>
43.80776

> <b_lp_Chiralities_Consistent>
1

> <s_lp_Variant>
sdf/inactives_sanitized.sdf:606-2

$$$$
sdf/inactives_sanitized.sdf:607
                    3D
 Schrodinger Suite 2020-1.
 54 57  0  0  1  0            999 V2000
    5.4360   -0.7374   -2.8776 C   0  0  0  0  0  0
    3.9228   -0.6909   -2.9178 C   0  0  0  0  0  0
    4.6500   -2.0208   -2.8222 C   0  0  0  0  0  0
   -4.1018   -0.9710    0.3681 C   0  0  0  0  0  0
   -5.0303   -0.0010   -0.0301 C   0  0  0  0  0  0
   -4.5506    1.2511   -0.4346 C   0  0  0  0  0  0
   -3.1868    1.5289   -0.4364 C   0  0  0  0  0  0
   -2.2619    0.5585   -0.0342 C   0  0  0  0  0  0
   -2.7368   -0.6979    0.3694 C   0  0  0  0  0  0
   -6.4972   -0.2923   -0.0175 C   0  0  0  0  0  0
   -7.4243    0.7128    0.2960 C   0  0  0  0  0  0
   -8.7904    0.4444    0.3123 C   0  0  0  0  0  0
   -9.2447   -0.8360    0.0125 C   0  0  0  0  0  0
   -8.3432   -1.8482   -0.3022 C   0  0  0  0  0  0
   -6.9775   -1.5762   -0.3156 C   0  0  0  0  0  0
   -0.7857    0.8901   -0.0144 C   0  0  0  0  0  0
    0.0599   -0.1581   -0.0334 N   0  0  0  0  0  0
   -0.4047    2.0625    0.0142 O   0  0  0  0  0  0
    1.5247   -0.0851    0.0235 C   0  0  2  0  0  0
    2.1518   -0.7941   -1.1925 C   0  0  0  0  0  0
    3.2222   -0.1935   -1.7380 N   0  0  0  0  0  0
    1.6951   -1.8688   -1.5873 O   0  0  0  0  0  0
    2.0209   -0.7193    1.3487 C   0  0  0  0  0  0
    3.2643   -0.3848   -4.2000 C   0  0  0  0  0  0
    2.7476   -0.1439   -5.2068 N   0  0  0  0  0  0
    1.5528   -0.0141    2.6123 C   0  0  0  0  0  0
    0.3489   -0.3984    3.2417 C   0  0  0  0  0  0
   -0.1278    0.3216    4.3289 C   0  0  0  0  0  0
    0.5625    1.4371    4.7859 C   0  0  0  0  0  0
    1.7281    1.8503    4.1527 C   0  0  0  0  0  0
    2.2204    1.1444    3.0629 C   0  0  0  0  0  0
    5.9935   -0.5061   -3.7859 H   0  0  0  0  0  0
    5.9548   -0.4095   -1.9762 H   0  0  0  0  0  0
    4.6250   -2.5749   -1.8832 H   0  0  0  0  0  0
    4.6598   -2.6777   -3.6924 H   0  0  0  0  0  0
   -4.4330   -1.9443    0.6992 H   0  0  0  0  0  0
   -5.2336    2.0223   -0.7590 H   0  0  0  0  0  0
   -2.8587    2.5085   -0.7545 H   0  0  0  0  0  0
   -2.0606   -1.4727    0.7016 H   0  0  0  0  0  0
   -7.0914    1.7103    0.5428 H   0  0  0  0  0  0
   -9.4937    1.2262    0.5591 H   0  0  0  0  0  0
  -10.3043   -1.0455    0.0242 H   0  0  0  0  0  0
   -8.7016   -2.8397   -0.5364 H   0  0  0  0  0  0
   -6.2943   -2.3729   -0.5709 H   0  0  0  0  0  0
   -0.3230   -1.0900   -0.0953 H   0  0  0  0  0  0
    1.8537    0.9568    0.0214 H   0  0  0  0  0  0
    3.5026    0.7128   -1.3922 H   0  0  0  0  0  0
    1.7071   -1.7636    1.4093 H   0  0  0  0  0  0
    3.1124   -0.7367    1.3664 H   0  0  0  0  0  0
   -0.2071   -1.2503    2.8783 H   0  0  0  0  0  0
   -1.0438    0.0191    4.8147 H   0  0  0  0  0  0
    0.1838    1.9938    5.6304 H   0  0  0  0  0  0
    2.2484    2.7295    4.5034 H   0  0  0  0  0  0
    3.1147    1.4860    2.5624 H   0  0  0  0  0  0
  1  2  1  0  0  0
  1  3  1  0  0  0
  1 32  1  0  0  0
  1 33  1  0  0  0
  2  3  1  0  0  0
  2 21  1  0  0  0
  2 24  1  0  0  0
  3 34  1  0  0  0
  3 35  1  0  0  0
  4  5  2  0  0  0
  4  9  1  0  0  0
  4 36  1  0  0  0
  5  6  1  0  0  0
  5 10  1  0  0  0
  6  7  2  0  0  0
  6 37  1  0  0  0
  7  8  1  0  0  0
  7 38  1  0  0  0
  8  9  2  0  0  0
  8 16  1  0  0  0
  9 39  1  0  0  0
 10 11  2  0  0  0
 10 15  1  0  0  0
 11 12  1  0  0  0
 11 40  1  0  0  0
 12 13  2  0  0  0
 12 41  1  0  0  0
 13 14  1  0  0  0
 13 42  1  0  0  0
 14 15  2  0  0  0
 14 43  1  0  0  0
 15 44  1  0  0  0
 16 17  1  0  0  0
 16 18  2  0  0  0
 17 19  1  0  0  0
 17 45  1  0  0  0
 19 20  1  0  0  0
 19 23  1  0  0  0
 19 46  1  0  0  0
 20 21  1  0  0  0
 20 22  2  0  0  0
 21 47  1  0  0  0
 23 26  1  0  0  0
 23 48  1  0  0  0
 23 49  1  0  0  0
 24 25  3  0  0  0
 26 27  2  0  0  0
 26 31  1  0  0  0
 27 28  1  0  0  0
 27 50  1  0  0  0
 28 29  2  0  0  0
 28 51  1  0  0  0
 29 30  1  0  0  0
 29 52  1  0  0  0
 30 31  2  0  0  0
 30 53  1  0  0  0
 31 54  1  0  0  0
M  END
> <chembl_id>
CHEMBL4226767

> <chembl_pref_name>
None

> <i_m_ct_stereo_status>
1

> <s_m_source_file>
sdf/inactives_sanitized.sdf

> <i_m_source_file_index>
607

> <i_lp_mmshare_version>
49012

> <i_f3d_flags>
0

> <s_epik_input>
W2NIXTFbY0hdW2NIXVtjSF1bY0hdYzFbQ0gyXVtDQEBIXShDKD1PKVtOSF1DMihDI04pW0NIMl1bQ0gyXTIpW05IXUMoPU8pYyhbY0hdW2NIXTMpW2NIXVtjSF1jMy1jNFtjSF1bY0hdW2NIXVtjSF1bY0hdNA==

> <s_epik_cmdline>
J2VwaWtfcHl0aG9uJywgJy1waHQnLCAnMC41JywgJy1waCcsICc3LjUnLCAnLW50JywgJy1tYScsICcyMDAnLCAnLWltYWUnLCAnPGluZmlsZS5tYWU+JywgJy1vbWFlJywgJzxvdXRmaWxlLm1hZT4n

> <r_lp_tautomer_probability>
1

> <r_epik_Ionization_Penalty>
  0.0000

> <r_epik_Ionization_Penalty_Charging>
  0.0000

> <r_epik_Ionization_Penalty_Neutral>
  0.0000

> <r_epik_State_Penalty>
 -0.0000

> <r_epik_Charging_Adjusted_Penalty>
0

> <i_epik_Tot_Q>
0

> <i_epik_Tot_abs_Q>
0

> <s_lp_Force_Field>
OPLS3e

> <r_lp_Energy>
42.851168

> <b_lp_Chiralities_Consistent>
1

> <s_lp_Variant>
sdf/inactives_sanitized.sdf:607-1

$$$$
sdf/inactives_sanitized.sdf:608
                    3D
 Schrodinger Suite 2020-1.
 56 59  0  0  1  0            999 V2000
   -2.6795   -2.0737   -3.3915 N   0  0  1  0  0  0
   -1.2518   -1.8475   -3.1220 C   0  0  1  0  0  0
   -0.4907   -1.3457   -4.3793 C   0  0  0  0  0  0
   -0.7193   -2.2671   -5.5884 C   0  0  0  0  0  0
   -2.2217   -2.5109   -5.7987 C   0  0  0  0  0  0
   -2.9176   -2.9892   -4.5077 C   0  0  0  0  0  0
   -1.1116   -0.8027   -1.9874 C   0  0  0  0  0  0
   -1.9567    0.0787   -1.8106 O   0  0  0  0  0  0
   -0.0043   -0.9054   -1.2284 N   0  0  0  0  0  0
    0.3594   -0.0329   -0.1083 C   0  0  1  0  0  0
    1.7295   -0.4360    0.4746 C   0  0  0  0  0  0
    2.1252    0.3691    1.7052 C   0  0  0  0  0  0
    2.9843    1.4609    1.5825 C   0  0  0  0  0  0
    3.3337    2.2003    2.7088 C   0  0  0  0  0  0
    2.8343    1.8623    3.9744 C   0  0  0  0  0  0
    1.9738    0.7608    4.0811 C   0  0  0  0  0  0
    1.6197    0.0198    2.9571 C   0  0  0  0  0  0
    4.2810    5.1584    8.4914 C   0  0  0  0  0  0
    4.3301    6.3350    7.8257 N   0  0  0  0  0  0
    4.0261    6.2494    6.4023 C   0  0  0  0  0  0
    3.7605    4.7865    6.2264 C   0  0  0  0  0  0
    3.4134    4.0481    5.0948 C   0  0  0  0  0  0
    3.2088    2.6599    5.1820 C   0  0  0  0  0  0
    3.3654    2.0429    6.4363 C   0  0  0  0  0  0
    3.7149    2.7811    7.5690 C   0  0  0  0  0  0
    3.9084    4.1554    7.4459 C   0  0  0  0  0  0
    4.4947    4.9614    9.6881 O   0  0  0  0  0  0
    4.6602    7.6039    8.4668 C   0  0  0  0  0  0
    0.3099    1.4006   -0.4665 C   0  0  0  0  0  0
    0.2731    2.5231   -0.7460 N   0  0  0  0  0  0
   -3.1311   -2.4306   -2.5613 H   0  0  0  0  0  0
   -0.8111   -2.7702   -2.7375 H   0  0  0  0  0  0
   -0.8143   -0.3353   -4.6398 H   0  0  0  0  0  0
    0.5787   -1.2708   -4.1745 H   0  0  0  0  0  0
   -0.2756   -1.8341   -6.4857 H   0  0  0  0  0  0
   -0.2142   -3.2197   -5.4216 H   0  0  0  0  0  0
   -2.7162   -1.6136   -6.1744 H   0  0  0  0  0  0
   -2.3604   -3.2605   -6.5786 H   0  0  0  0  0  0
   -3.9934   -3.0654   -4.6675 H   0  0  0  0  0  0
   -2.5611   -3.9819   -4.2292 H   0  0  0  0  0  0
    0.5776   -1.7202   -1.3557 H   0  0  0  0  0  0
   -0.3942   -0.1690    0.6699 H   0  0  0  0  0  0
    1.7255   -1.4937    0.7444 H   0  0  0  0  0  0
    2.5058   -0.3410   -0.2871 H   0  0  0  0  0  0
    3.3790    1.7414    0.6166 H   0  0  0  0  0  0
    4.0064    3.0367    2.5888 H   0  0  0  0  0  0
    1.5597    0.4782    5.0377 H   0  0  0  0  0  0
    0.9491   -0.8209    3.0609 H   0  0  0  0  0  0
    3.1649    6.8714    6.1562 H   0  0  0  0  0  0
    4.8691    6.6043    5.8086 H   0  0  0  0  0  0
    3.2913    4.5541    4.1484 H   0  0  0  0  0  0
    3.2273    0.9768    6.5411 H   0  0  0  0  0  0
    3.8320    2.2802    8.5192 H   0  0  0  0  0  0
    4.8604    7.4958    9.5340 H   0  0  0  0  0  0
    3.8351    8.3067    8.3483 H   0  0  0  0  0  0
    5.5444    8.0389    8.0003 H   0  0  0  0  0  0
  1  2  1  0  0  0
  1  6  1  0  0  0
  1 31  1  0  0  0
  2  3  1  0  0  0
  2  7  1  0  0  0
  2 32  1  0  0  0
  3  4  1  0  0  0
  3 33  1  0  0  0
  3 34  1  0  0  0
  4  5  1  0  0  0
  4 35  1  0  0  0
  4 36  1  0  0  0
  5  6  1  0  0  0
  5 37  1  0  0  0
  5 38  1  0  0  0
  6 39  1  0  0  0
  6 40  1  0  0  0
  7  8  2  0  0  0
  7  9  1  0  0  0
  9 10  1  0  0  0
  9 41  1  0  0  0
 10 11  1  0  0  0
 10 29  1  0  0  0
 10 42  1  0  0  0
 11 12  1  0  0  0
 11 43  1  0  0  0
 11 44  1  0  0  0
 12 13  2  0  0  0
 12 17  1  0  0  0
 13 14  1  0  0  0
 13 45  1  0  0  0
 14 15  2  0  0  0
 14 46  1  0  0  0
 15 16  1  0  0  0
 15 23  1  0  0  0
 16 17  2  0  0  0
 16 47  1  0  0  0
 17 48  1  0  0  0
 18 19  1  0  0  0
 18 26  1  0  0  0
 18 27  2  0  0  0
 19 20  1  0  0  0
 19 28  1  0  0  0
 20 21  1  0  0  0
 20 49  1  0  0  0
 20 50  1  0  0  0
 21 22  2  0  0  0
 21 26  1  0  0  0
 22 23  1  0  0  0
 22 51  1  0  0  0
 23 24  2  0  0  0
 24 25  1  0  0  0
 24 52  1  0  0  0
 25 26  2  0  0  0
 25 53  1  0  0  0
 28 54  1  0  0  0
 28 55  1  0  0  0
 28 56  1  0  0  0
 29 30  3  0  0  0
M  END
> <chembl_id>
CHEMBL3261921

> <chembl_pref_name>
None

> <i_m_ct_stereo_status>
1

> <s_m_source_file>
sdf/inactives_sanitized.sdf

> <i_m_source_file_index>
608

> <i_lp_mmshare_version>
49012

> <i_f3d_flags>
0

> <s_epik_input>
W0NIMl0xW0NIMl1bQ0gyXVtDSDJdW05IXVtDQEBIXTFDKD1PKVtOSF1bQ0BIXShDI04pW0NIMl1jMltjSF1bY0hdYyhbY0hdW2NIXTIpLWMoW2NIXTMpW2NIXVtjSF1jKGMzNClDKD1PKU4oW0NIMl00KVtDSDNd

> <s_epik_cmdline>
J2VwaWtfcHl0aG9uJywgJy1waHQnLCAnMC41JywgJy1waCcsICc3LjUnLCAnLW50JywgJy1tYScsICcyMDAnLCAnLWltYWUnLCAnPGluZmlsZS5tYWU+JywgJy1vbWFlJywgJzxvdXRmaWxlLm1hZT4n

> <r_epik_Ionization_Penalty>
  0.3136

> <r_epik_Ionization_Penalty_Charging>
  0.0000

> <r_epik_Ionization_Penalty_Neutral>
  0.3136

> <r_epik_State_Penalty>
  0.3078

> <r_epik_Charging_Adjusted_Penalty>
0.307765777714829

> <i_epik_Tot_Q>
0

> <i_epik_Tot_abs_Q>
0

> <s_lp_Force_Field>
OPLS3e

> <r_lp_Energy>
28.409513

> <b_lp_Chiralities_Consistent>
1

> <s_lp_Variant>
sdf/inactives_sanitized.sdf:608-1

$$$$
sdf/inactives_sanitized.sdf:608
                    3D
 Schrodinger Suite 2020-1.
 57 60  0  0  1  0            999 V2000
   -0.9735   -3.9120   -2.8922 N   0  3  0  0  0  0
   -1.2690   -2.3951   -2.8180 C   0  0  1  0  0  0
   -2.7995   -2.1716   -2.9168 C   0  0  0  0  0  0
   -3.3904   -2.8128   -4.1856 C   0  0  0  0  0  0
   -3.0379   -4.3091   -4.2753 C   0  0  0  0  0  0
   -1.5210   -4.5606   -4.1775 C   0  0  0  0  0  0
   -0.7125   -1.9134   -1.4562 C   0  0  0  0  0  0
   -0.3547   -2.6976   -0.5732 O   0  0  0  0  0  0
   -0.6514   -0.5795   -1.2994 N   0  0  0  0  0  0
   -0.1559    0.1066   -0.1064 C   0  0  1  0  0  0
    1.3876    0.1571   -0.0474 C   0  0  0  0  0  0
    1.9210    0.8364    1.2063 C   0  0  0  0  0  0
    2.2714    2.1859    1.1747 C   0  0  0  0  0  0
    2.7485    2.8069    2.3251 C   0  0  0  0  0  0
    2.8858    2.0934    3.5239 C   0  0  0  0  0  0
    2.5314    0.7368    3.5388 C   0  0  0  0  0  0
    2.0508    0.1118    2.3910 C   0  0  0  0  0  0
    4.7663    4.9226    8.1953 C   0  0  0  0  0  0
    4.1901    6.1123    7.9079 N   0  0  0  0  0  0
    3.4210    6.1398    6.6698 C   0  0  0  0  0  0
    3.5881    4.7398    6.1663 C   0  0  0  0  0  0
    3.1015    4.1157    5.0177 C   0  0  0  0  0  0
    3.3980    2.7663    4.7567 C   0  0  0  0  0  0
    4.1918    2.0693    5.6855 C   0  0  0  0  0  0
    4.6803    2.6940    6.8351 C   0  0  0  0  0  0
    4.3689    4.0334    7.0598 C   0  0  0  0  0  0
    5.4614    4.6396    9.1716 O   0  0  0  0  0  0
    4.3196    7.2911    8.7585 C   0  0  0  0  0  0
   -0.7769    1.4397   -0.0170 C   0  0  0  0  0  0
   -1.2647    2.4868    0.0524 N   0  0  0  0  0  0
    0.0248   -4.0595   -2.8414 H   0  0  0  0  0  0
   -0.6955   -1.9269   -3.6202 H   0  0  0  0  0  0
   -3.3011   -2.6054   -2.0486 H   0  0  0  0  0  0
   -3.0329   -1.1055   -2.9031 H   0  0  0  0  0  0
   -4.4737   -2.6845   -4.1977 H   0  0  0  0  0  0
   -3.0133   -2.2934   -5.0684 H   0  0  0  0  0  0
   -3.5483   -4.8557   -3.4806 H   0  0  0  0  0  0
   -3.4152   -4.7186   -5.2131 H   0  0  0  0  0  0
   -1.2746   -5.6208   -4.1102 H   0  0  0  0  0  0
   -0.9655   -4.1135   -5.0032 H   0  0  0  0  0  0
   -0.9160    0.0127   -2.0734 H   0  0  0  0  0  0
   -0.5313   -0.4093    0.7804 H   0  0  0  0  0  0
    1.8020   -0.8515   -0.0958 H   0  0  0  0  0  0
    1.7809    0.6661   -0.9294 H   0  0  0  0  0  0
    2.1722    2.7569    0.2629 H   0  0  0  0  0  0
    3.0209    3.8505    2.2719 H   0  0  0  0  0  0
    2.6140    0.1574    4.4468 H   0  0  0  0  0  0
    1.7764   -0.9327    2.4261 H   0  0  0  0  0  0
    2.3809    6.3992    6.8706 H   0  0  0  0  0  0
    3.8217    6.8891    5.9863 H   0  0  0  0  0  0
    2.4846    4.6766    4.3311 H   0  0  0  0  0  0
    4.4494    1.0343    5.5152 H   0  0  0  0  0  0
    5.2923    2.1355    7.5286 H   0  0  0  0  0  0
    4.9244    7.1037    9.6471 H   0  0  0  0  0  0
    3.3349    7.6252    9.0857 H   0  0  0  0  0  0
    4.7839    8.1044    8.2006 H   0  0  0  0  0  0
   -1.3787   -4.3666   -2.0859 H   0  0  0  0  0  0
  1  2  1  0  0  0
  1  6  1  0  0  0
  1 31  1  0  0  0
  1 57  1  0  0  0
  2  3  1  0  0  0
  2  7  1  0  0  0
  2 32  1  0  0  0
  3  4  1  0  0  0
  3 33  1  0  0  0
  3 34  1  0  0  0
  4  5  1  0  0  0
  4 35  1  0  0  0
  4 36  1  0  0  0
  5  6  1  0  0  0
  5 37  1  0  0  0
  5 38  1  0  0  0
  6 39  1  0  0  0
  6 40  1  0  0  0
  7  8  2  0  0  0
  7  9  1  0  0  0
  9 10  1  0  0  0
  9 41  1  0  0  0
 10 11  1  0  0  0
 10 29  1  0  0  0
 10 42  1  0  0  0
 11 12  1  0  0  0
 11 43  1  0  0  0
 11 44  1  0  0  0
 12 13  2  0  0  0
 12 17  1  0  0  0
 13 14  1  0  0  0
 13 45  1  0  0  0
 14 15  2  0  0  0
 14 46  1  0  0  0
 15 16  1  0  0  0
 15 23  1  0  0  0
 16 17  2  0  0  0
 16 47  1  0  0  0
 17 48  1  0  0  0
 18 19  1  0  0  0
 18 26  1  0  0  0
 18 27  2  0  0  0
 19 20  1  0  0  0
 19 28  1  0  0  0
 20 21  1  0  0  0
 20 49  1  0  0  0
 20 50  1  0  0  0
 21 22  2  0  0  0
 21 26  1  0  0  0
 22 23  1  0  0  0
 22 51  1  0  0  0
 23 24  2  0  0  0
 24 25  1  0  0  0
 24 52  1  0  0  0
 25 26  2  0  0  0
 25 53  1  0  0  0
 28 54  1  0  0  0
 28 55  1  0  0  0
 28 56  1  0  0  0
 29 30  3  0  0  0
M  CHG  1   1   1
M  END
> <chembl_id>
CHEMBL3261921

> <chembl_pref_name>
None

> <i_m_ct_stereo_status>
1

> <s_m_source_file>
sdf/inactives_sanitized.sdf

> <i_m_source_file_index>
608

> <i_lp_mmshare_version>
49012

> <i_f3d_flags>
0

> <s_epik_input>
W0NIMl0xW0NIMl1bQ0gyXVtDSDJdW05IXVtDQEBIXTFDKD1PKVtOSF1bQ0BIXShDI04pW0NIMl1jMltjSF1bY0hdYyhbY0hdW2NIXTIpLWMoW2NIXTMpW2NIXVtjSF1jKGMzNClDKD1PKU4oW0NIMl00KVtDSDNd

> <s_epik_cmdline>
J2VwaWtfcHl0aG9uJywgJy1waHQnLCAnMC41JywgJy1waCcsICc3LjUnLCAnLW50JywgJy1tYScsICcyMDAnLCAnLWltYWUnLCAnPGluZmlsZS5tYWU+JywgJy1vbWFlJywgJzxvdXRmaWxlLm1hZT4n

> <r_epik_Ionization_Penalty>
  0.5270

> <r_epik_Ionization_Penalty_Charging>
  0.5268

> <r_epik_Ionization_Penalty_Neutral>
  0.0002

> <r_epik_State_Penalty>
  0.5353

> <r_epik_Charging_Adjusted_Penalty>
1.06214808479859

> <i_epik_Tot_Q>
1

> <i_epik_Tot_abs_Q>
1

> <s_lp_Force_Field>
OPLS3e

> <r_lp_Energy>
39.700406

> <b_lp_Chiralities_Consistent>
1

> <s_lp_Variant>
sdf/inactives_sanitized.sdf:608-2

$$$$
sdf/inactives_sanitized.sdf:609
                    3D
 Schrodinger Suite 2020-1.
 55 57  0  0  1  0            999 V2000
   -2.3982   -5.9030   -0.6702 C   0  0  0  0  0  0
   -2.4258   -4.9129    0.3524 O   0  0  0  0  0  0
   -1.7780   -3.7105    0.1437 C   0  0  0  0  0  0
   -1.0852   -3.3783   -1.0302 C   0  0  0  0  0  0
   -0.4544   -2.1428   -1.1469 C   0  0  0  0  0  0
   -0.4979   -1.2189   -0.0959 C   0  0  0  0  0  0
   -1.2001   -1.5501    1.0696 C   0  0  0  0  0  0
   -1.8315   -2.7851    1.1855 C   0  0  0  0  0  0
    0.1983    0.0754   -0.2174 C   0  0  0  0  0  0
   -0.6132    1.0739   -0.2111 N   0  0  0  0  0  0
   -0.1304    2.3292   -0.1222 N   0  0  0  0  0  0
   -0.9013    3.4531   -0.1330 C   0  0  0  0  0  0
   -0.2022    4.9492   -0.0239 S   0  0  0  0  0  0
   -2.2477    3.3295   -0.2359 N   0  0  0  0  0  0
    1.7097    0.0653   -0.2984 C   0  0  0  0  0  0
    2.4945    1.1693   -0.6814 C   0  0  0  0  0  0
    3.8816    1.0945   -0.7455 C   0  0  0  0  0  0
    4.5336   -0.0932   -0.4396 C   0  0  0  0  0  0
    3.8166   -1.2402   -0.0690 C   0  0  0  0  0  0
    2.4136   -1.1226   -0.0098 C   0  0  0  0  0  0
    4.5085   -2.5280    0.2406 C   0  0  0  0  0  0
    3.7885   -3.5617    0.5081 N   0  0  0  0  0  0
    4.4175   -4.7280    0.8035 N   0  0  0  0  0  0
    3.7716   -5.9016    1.0544 C   0  0  0  0  0  0
    4.6290   -7.2740    1.4009 S   0  0  0  0  0  0
    2.4163   -5.9307    1.0116 N   0  0  0  0  0  0
    5.9911   -2.5633    0.2016 C   0  0  0  0  0  0
    6.7361   -1.9949    1.2416 C   0  0  0  0  0  0
    8.1277   -2.0316    1.2105 C   0  0  0  0  0  0
    8.7795   -2.6401    0.1399 C   0  0  0  0  0  0
   10.1483   -2.6774    0.1099 O   0  0  0  0  0  0
    8.0489   -3.2116   -0.8997 C   0  0  0  0  0  0
    6.6574   -3.1730   -0.8684 C   0  0  0  0  0  0
   -2.9509   -6.7810   -0.3364 H   0  0  0  0  0  0
   -1.3781   -6.2199   -0.8928 H   0  0  0  0  0  0
   -2.8702   -5.5453   -1.5866 H   0  0  0  0  0  0
   -1.0226   -4.0654   -1.8601 H   0  0  0  0  0  0
    0.0777   -1.9114   -2.0589 H   0  0  0  0  0  0
   -1.2508   -0.8558    1.8967 H   0  0  0  0  0  0
   -2.3627   -3.0271    2.0945 H   0  0  0  0  0  0
    0.8741    2.4056   -0.0510 H   0  0  0  0  0  0
   -2.6625    2.4112   -0.3028 H   0  0  0  0  0  0
   -2.8272    4.1563   -0.2473 H   0  0  0  0  0  0
    2.0699    2.1121   -0.9805 H   0  0  0  0  0  0
    4.4538    1.9592   -1.0478 H   0  0  0  0  0  0
    5.6111   -0.1032   -0.5147 H   0  0  0  0  0  0
    1.8541   -1.9942    0.2952 H   0  0  0  0  0  0
    5.4269   -4.6917    0.8100 H   0  0  0  0  0  0
    1.9040   -5.0857    0.8035 H   0  0  0  0  0  0
    1.9275   -6.7972    1.1844 H   0  0  0  0  0  0
    6.2410   -1.5232    2.0787 H   0  0  0  0  0  0
    8.6954   -1.5898    2.0165 H   0  0  0  0  0  0
   10.4929   -3.1229   -0.6673 H   0  0  0  0  0  0
    8.5536   -3.6850   -1.7292 H   0  0  0  0  0  0
    6.0999   -3.6205   -1.6794 H   0  0  0  0  0  0
  1  2  1  0  0  0
  1 34  1  0  0  0
  1 35  1  0  0  0
  1 36  1  0  0  0
  2  3  1  0  0  0
  3  4  2  0  0  0
  3  8  1  0  0  0
  4  5  1  0  0  0
  4 37  1  0  0  0
  5  6  2  0  0  0
  5 38  1  0  0  0
  6  7  1  0  0  0
  6  9  1  0  0  0
  7  8  2  0  0  0
  7 39  1  0  0  0
  8 40  1  0  0  0
  9 10  2  0  0  0
  9 15  1  0  0  0
 10 11  1  0  0  0
 11 12  1  0  0  0
 11 41  1  0  0  0
 12 13  2  0  0  0
 12 14  1  0  0  0
 14 42  1  0  0  0
 14 43  1  0  0  0
 15 16  2  0  0  0
 15 20  1  0  0  0
 16 17  1  0  0  0
 16 44  1  0  0  0
 17 18  2  0  0  0
 17 45  1  0  0  0
 18 19  1  0  0  0
 18 46  1  0  0  0
 19 20  2  0  0  0
 19 21  1  0  0  0
 20 47  1  0  0  0
 21 22  2  0  0  0
 21 27  1  0  0  0
 22 23  1  0  0  0
 23 24  1  0  0  0
 23 48  1  0  0  0
 24 25  2  0  0  0
 24 26  1  0  0  0
 26 49  1  0  0  0
 26 50  1  0  0  0
 27 28  2  0  0  0
 27 33  1  0  0  0
 28 29  1  0  0  0
 28 51  1  0  0  0
 29 30  2  0  0  0
 29 52  1  0  0  0
 30 31  1  0  0  0
 30 32  1  0  0  0
 31 53  1  0  0  0
 32 33  2  0  0  0
 32 54  1  0  0  0
 33 55  1  0  0  0
M  END
> <chembl_id>
CHEMBL3699010

> <chembl_pref_name>
None

> <s_m_source_file>
sdf/inactives_sanitized.sdf

> <i_m_source_file_index>
609

> <i_lp_mmshare_version>
49012

> <i_m_ct_stereo_status>
1

> <i_f3d_flags>
0

> <s_epik_input>
W0NIM11PYzFbY0hdW2NIXWMoW2NIXVtjSF0xKS9DKD1OL1tOSF1DKD1TKVtOSDJdKWMyW2NIXVtjSF1bY0hdYyhbY0hdMikvQyg9Ti9bTkhdQyg9UylbTkgyXSljM1tjSF1bY0hdYyhbT0hdKVtjSF1bY0hdMw==

> <s_epik_cmdline>
J2VwaWtfcHl0aG9uJywgJy1waHQnLCAnMC41JywgJy1waCcsICc3LjUnLCAnLW50JywgJy1tYScsICcyMDAnLCAnLWltYWUnLCAnPGluZmlsZS5tYWU+JywgJy1vbWFlJywgJzxvdXRmaWxlLm1hZT4n

> <r_epik_Ionization_Penalty>
  0.0193

> <r_epik_Ionization_Penalty_Charging>
  0.0000

> <r_epik_Ionization_Penalty_Neutral>
  0.0193

> <r_epik_State_Penalty>
  0.0153

> <r_epik_Charging_Adjusted_Penalty>
0.0152843442793875

> <i_epik_Tot_Q>
0

> <i_epik_Tot_abs_Q>
0

> <s_epik_Chemistry_Notes>
This compound has an imine and may undergo hydrolysis.

> <s_lp_Force_Field>
OPLS3e

> <r_lp_Energy>
88.758488

> <b_lp_Chiralities_Consistent>
1

> <s_lp_Variant>
sdf/inactives_sanitized.sdf:609-1

$$$$
sdf/inactives_sanitized.sdf:610
                    3D
 Schrodinger Suite 2020-1.
 39 41  0  0  1  0            999 V2000
   -2.6161    0.1234    1.0311 N   0  0  0  0  0  0
   -2.1373   -0.9193    0.2915 C   0  0  0  0  0  0
   -0.8586   -0.9845   -0.1824 N   0  0  0  0  0  0
   -0.0592    0.0837    0.0913 C   0  0  0  0  0  0
   -0.4448    1.1678    0.8124 N   0  0  0  0  0  0
   -1.7290    1.1269    1.2493 C   0  0  0  0  0  0
   -2.9774   -2.0167    0.0723 N   0  0  0  0  0  0
   -2.6441   -3.0594   -0.9220 C   0  0  0  0  0  0
   -3.4281   -4.3768   -0.7519 C   0  0  0  0  0  0
   -4.8200   -4.1149   -0.6893 O   0  0  0  0  0  0
   -5.1402   -3.2984    0.4245 C   0  0  0  0  0  0
   -4.4357   -1.9322    0.3007 C   0  0  0  0  0  0
   -2.1969    2.2612    2.0277 C   0  0  0  0  0  0
   -2.5700    3.1646    2.6478 N   0  0  0  0  0  0
    1.2732    0.0899   -0.3470 N   0  0  0  0  0  0
    1.9741   -0.7575   -1.2224 C   0  0  0  0  0  0
    3.3541   -0.8746   -1.0523 C   0  0  0  0  0  0
    4.0982   -1.6903   -1.9001 C   0  0  0  0  0  0
    3.4789   -2.3910   -2.9352 C   0  0  0  0  0  0
    2.0930   -2.2618   -3.1146 C   0  0  0  0  0  0
    1.3476   -1.4478   -2.2660 C   0  0  0  0  0  0
    4.2976   -3.1731   -3.7268 O   0  0  0  0  0  0
    3.7287   -3.8948   -4.8142 C   0  0  0  0  0  0
   -2.7899   -2.6551   -1.9246 H   0  0  0  0  0  0
   -1.5857   -3.3105   -0.8434 H   0  0  0  0  0  0
   -3.2356   -5.0353   -1.5992 H   0  0  0  0  0  0
   -3.0965   -4.9161    0.1379 H   0  0  0  0  0  0
   -6.2208   -3.1573    0.4547 H   0  0  0  0  0  0
   -4.8686   -3.7949    1.3585 H   0  0  0  0  0  0
   -4.6288   -1.3917    1.2280 H   0  0  0  0  0  0
   -4.8870   -1.3426   -0.4987 H   0  0  0  0  0  0
    1.8054    0.8847   -0.0237 H   0  0  0  0  0  0
    3.8570   -0.3394   -0.2594 H   0  0  0  0  0  0
    5.1650   -1.7771   -1.7535 H   0  0  0  0  0  0
    1.5780   -2.7804   -3.9088 H   0  0  0  0  0  0
    0.2869   -1.3528   -2.4430 H   0  0  0  0  0  0
    4.5143   -4.4466   -5.3301 H   0  0  0  0  0  0
    3.2659   -3.2246   -5.5401 H   0  0  0  0  0  0
    2.9879   -4.6186   -4.4709 H   0  0  0  0  0  0
  1  2  2  0  0  0
  1  6  1  0  0  0
  2  3  1  0  0  0
  2  7  1  0  0  0
  3  4  2  0  0  0
  4  5  1  0  0  0
  4 15  1  0  0  0
  5  6  2  0  0  0
  6 13  1  0  0  0
  7  8  1  0  0  0
  7 12  1  0  0  0
  8  9  1  0  0  0
  8 24  1  0  0  0
  8 25  1  0  0  0
  9 10  1  0  0  0
  9 26  1  0  0  0
  9 27  1  0  0  0
 10 11  1  0  0  0
 11 12  1  0  0  0
 11 28  1  0  0  0
 11 29  1  0  0  0
 12 30  1  0  0  0
 12 31  1  0  0  0
 13 14  3  0  0  0
 15 16  1  0  0  0
 15 32  1  0  0  0
 16 17  2  0  0  0
 16 21  1  0  0  0
 17 18  1  0  0  0
 17 33  1  0  0  0
 18 19  2  0  0  0
 18 34  1  0  0  0
 19 20  1  0  0  0
 19 22  1  0  0  0
 20 21  2  0  0  0
 20 35  1  0  0  0
 21 36  1  0  0  0
 22 23  1  0  0  0
 23 37  1  0  0  0
 23 38  1  0  0  0
 23 39  1  0  0  0
M  END
> <chembl_id>
CHEMBL4248570

> <chembl_pref_name>
None

> <s_m_source_file>
sdf/inactives_sanitized.sdf

> <i_m_source_file_index>
610

> <i_lp_mmshare_version>
49012

> <i_m_ct_stereo_status>
1

> <i_f3d_flags>
0

> <s_epik_input>
W0NIMl0xW0NIMl1PW0NIMl1bQ0gyXU4xYzJuYyhDI04pbmMobjIpW05IXWMzW2NIXVtjSF1jKFtjSF1bY0hdMylPW0NIM10=

> <s_epik_cmdline>
J2VwaWtfcHl0aG9uJywgJy1waHQnLCAnMC41JywgJy1waCcsICc3LjUnLCAnLW50JywgJy1tYScsICcyMDAnLCAnLWltYWUnLCAnPGluZmlsZS5tYWU+JywgJy1vbWFlJywgJzxvdXRmaWxlLm1hZT4n

> <r_lp_tautomer_probability>
1

> <r_epik_Ionization_Penalty>
  0.0001

> <r_epik_Ionization_Penalty_Charging>
  0.0000

> <r_epik_Ionization_Penalty_Neutral>
  0.0001

> <r_epik_State_Penalty>
 -0.0000

> <r_epik_Charging_Adjusted_Penalty>
0

> <i_epik_Tot_Q>
0

> <i_epik_Tot_abs_Q>
0

> <s_lp_Force_Field>
OPLS3e

> <r_lp_Energy>
29.293267

> <b_lp_Chiralities_Consistent>
1

> <s_lp_Variant>
sdf/inactives_sanitized.sdf:610-1

$$$$
sdf/inactives_sanitized.sdf:611
                    3D
 Schrodinger Suite 2020-1.
 40 40  0  0  1  0            999 V2000
   -0.6502    1.0642   -0.0422 C   0  0  0  0  0  0
    0.0284   -0.1191   -0.3070 N   0  0  0  0  0  0
   -0.1483    2.1341    0.3124 O   0  0  0  0  0  0
    1.3594   -1.5841   -2.1515 O   0  0  0  0  0  0
   -1.9686    0.8575   -0.2267 O   0  0  0  0  0  0
    2.0286   -1.0916   -1.2402 C   0  0  0  0  0  0
    1.4872   -0.2185   -0.1171 C   0  0  2  0  0  0
   -2.9062    1.9084   -0.0279 C   0  0  0  0  0  0
   -5.3809    2.4689   -0.1224 C   0  0  0  0  0  0
   -4.3244    1.3905   -0.3074 C   0  0  0  0  0  0
   -5.9042    2.7193    1.1491 C   0  0  0  0  0  0
   -5.8236    3.2112   -1.2211 C   0  0  0  0  0  0
    1.8887   -0.8273    1.2525 C   0  0  0  0  0  0
    1.9786   -0.5467    3.8044 C   0  0  0  0  0  0
    1.4785    0.0288    2.4681 C   0  0  0  0  0  0
    1.5683    0.3075    5.0117 C   0  0  0  0  0  0
   -6.7893    4.1997   -1.0483 C   0  0  0  0  0  0
   -6.8694    3.7082    1.3211 C   0  0  0  0  0  0
   -7.3078    4.4432    0.2217 C   0  0  0  0  0  0
   -0.4996   -0.9703   -0.4334 H   0  0  0  0  0  0
    3.1053   -1.2568   -1.1915 H   0  0  0  0  0  0
    1.9602    0.7597   -0.2299 H   0  0  0  0  0  0
   -2.8381    2.2767    0.9975 H   0  0  0  0  0  0
   -2.6749    2.7425   -0.6928 H   0  0  0  0  0  0
   -4.5544    0.5502    0.3498 H   0  0  0  0  0  0
   -4.3862    0.9915   -1.3213 H   0  0  0  0  0  0
   -5.5633    2.1506    2.0023 H   0  0  0  0  0  0
   -5.4215    3.0249   -2.2064 H   0  0  0  0  0  0
    1.4428   -1.8183    1.3617 H   0  0  0  0  0  0
    2.9714   -0.9675    1.2859 H   0  0  0  0  0  0
    1.5922   -1.5586    3.9352 H   0  0  0  0  0  0
    3.0658   -0.6345    3.7828 H   0  0  0  0  0  0
    0.3920    0.1134    2.5083 H   0  0  0  0  0  0
    1.8649    1.0417    2.3443 H   0  0  0  0  0  0
    1.9345   -0.1304    5.9406 H   0  0  0  0  0  0
    0.4836    0.3891    5.0894 H   0  0  0  0  0  0
    1.9755    1.3166    4.9392 H   0  0  0  0  0  0
   -7.1348    4.7751   -1.8946 H   0  0  0  0  0  0
   -7.2758    3.9050    2.3022 H   0  0  0  0  0  0
   -8.0569    5.2097    0.3557 H   0  0  0  0  0  0
  1  2  1  0  0  0
  1  3  2  0  0  0
  1  5  1  0  0  0
  2  7  1  0  0  0
  2 20  1  0  0  0
  4  6  2  0  0  0
  5  8  1  0  0  0
  6  7  1  0  0  0
  6 21  1  0  0  0
  7 13  1  0  0  0
  7 22  1  0  0  0
  8 10  1  0  0  0
  8 23  1  0  0  0
  8 24  1  0  0  0
  9 10  1  0  0  0
  9 11  2  0  0  0
  9 12  1  0  0  0
 10 25  1  0  0  0
 10 26  1  0  0  0
 11 18  1  0  0  0
 11 27  1  0  0  0
 12 17  2  0  0  0
 12 28  1  0  0  0
 13 15  1  0  0  0
 13 29  1  0  0  0
 13 30  1  0  0  0
 14 15  1  0  0  0
 14 16  1  0  0  0
 14 31  1  0  0  0
 14 32  1  0  0  0
 15 33  1  0  0  0
 15 34  1  0  0  0
 16 35  1  0  0  0
 16 36  1  0  0  0
 16 37  1  0  0  0
 17 19  1  0  0  0
 17 38  1  0  0  0
 18 19  2  0  0  0
 18 39  1  0  0  0
 19 40  1  0  0  0
M  END
> <chembl_id>
CHEMBL114951

> <chembl_pref_name>
None

> <i_m_ct_stereo_status>
1

> <s_m_source_file>
sdf/inactives_sanitized.sdf

> <i_m_source_file_index>
611

> <i_lp_mmshare_version>
49012

> <i_f3d_flags>
0

> <s_epik_input>
W0NIM11bQ0gyXVtDSDJdW0NIMl1bQ0BASF0oW0NIXT1PKVtOSF1DKD1PKU9bQ0gyXVtDSDJdYzFbY0hdW2NIXVtjSF1bY0hdW2NIXTE=

> <s_epik_cmdline>
J2VwaWtfcHl0aG9uJywgJy1waHQnLCAnMC41JywgJy1waCcsICc3LjUnLCAnLW50JywgJy1tYScsICcyMDAnLCAnLWltYWUnLCAnPGluZmlsZS5tYWU+JywgJy1vbWFlJywgJzxvdXRmaWxlLm1hZT4n

> <r_lp_tautomer_probability>
1

> <r_epik_Ionization_Penalty>
  0.0003

> <r_epik_Ionization_Penalty_Charging>
  0.0000

> <r_epik_Ionization_Penalty_Neutral>
  0.0003

> <r_epik_State_Penalty>
 -0.0000

> <r_epik_Charging_Adjusted_Penalty>
0

> <i_epik_Tot_Q>
0

> <i_epik_Tot_abs_Q>
0

> <s_epik_Chemistry_Notes>
This compound has an ester and may undergo hydrolysis at high or low pH.

> <s_lp_Force_Field>
OPLS3e

> <r_lp_Energy>
22.687069

> <b_lp_Chiralities_Consistent>
1

> <s_lp_Variant>
sdf/inactives_sanitized.sdf:611-1

$$$$
sdf/inactives_sanitized.sdf:612
                    3D
 Schrodinger Suite 2020-1.
 61 64  0  0  1  0            999 V2000
    3.9498    1.2667    1.4283 C   0  0  0  0  0  0
    4.3834    1.7156    2.8075 C   0  0  0  0  0  0
    4.6665    0.3056    2.3597 C   0  0  0  0  0  0
   -2.0291   -3.0001    1.2253 S   0  0  0  0  0  0
   -2.0906   -3.1424    2.6846 O   0  0  0  0  0  0
   -3.1148   -2.3188    0.5113 O   0  0  0  0  0  0
   -0.3728   -2.1824    0.7787 C   0  0  2  0  0  0
   -0.3037   -0.7401    1.3107 C   0  0  0  0  0  0
    0.4770    0.0696    0.2574 C   0  0  2  0  0  0
    0.1170   -0.6165   -1.0958 C   0  0  1  0  0  0
   -0.1001   -2.1144   -0.7401 C   0  0  0  0  0  0
    1.9991    0.0089    0.5481 C   0  0  0  0  0  0
   -1.1416    0.0607   -1.7222 C   0  0  0  0  0  0
   -2.2330   -0.5078   -1.6412 O   0  0  0  0  0  0
   -1.0330    1.3208   -2.2323 N   0  0  0  0  0  0
    0.2547    1.9380   -2.5872 C   0  0  0  0  0  0
    0.4130    1.7907   -4.1189 C   0  0  1  0  0  0
   -0.7157    2.3724   -4.7745 O   0  0  0  0  0  0
   -1.9903    1.8452   -4.3997 C   0  0  1  0  0  0
   -2.1905    1.9711   -2.8679 C   0  0  0  0  0  0
    2.5229    1.0704    1.1861 N   0  0  0  0  0  0
    2.6965   -0.9129    0.1197 O   0  0  0  0  0  0
    4.7074    1.7527    0.2614 C   0  0  0  0  0  0
    5.3008    2.1349   -0.6554 N   0  0  0  0  0  0
   -1.8829   -4.6509    0.5435 C   0  0  0  0  0  0
   -2.4546   -4.9528   -0.6956 C   0  0  0  0  0  0
   -2.3330   -6.2379   -1.2177 C   0  0  0  0  0  0
   -1.6418   -7.2125   -0.5003 C   0  0  0  0  0  0
   -1.0689   -6.9142    0.7347 C   0  0  0  0  0  0
   -1.1885   -5.6297    1.2582 C   0  0  0  0  0  0
    1.6788    2.4955   -4.6229 C   0  0  0  0  0  0
   -3.0708    2.6102   -5.1743 C   0  0  0  0  0  0
    5.2177    2.4122    2.8955 H   0  0  0  0  0  0
    3.6266    1.8735    3.5767 H   0  0  0  0  0  0
    5.6962    0.0259    2.1347 H   0  0  0  0  0  0
    4.1058   -0.5087    2.8203 H   0  0  0  0  0  0
    0.3890   -2.7923    1.2664 H   0  0  0  0  0  0
   -1.3039   -0.3098    1.3835 H   0  0  0  0  0  0
    0.1201   -0.6841    2.3154 H   0  0  0  0  0  0
    0.2197    1.1319    0.2488 H   0  0  0  0  0  0
    0.8993   -0.5199   -1.8506 H   0  0  0  0  0  0
   -0.8799   -2.5923   -1.3340 H   0  0  0  0  0  0
    0.8176   -2.6585   -0.9684 H   0  0  0  0  0  0
    0.2081    2.9954   -2.3234 H   0  0  0  0  0  0
    1.1042    1.5848   -2.0042 H   0  0  0  0  0  0
    0.4988    0.7369   -4.3923 H   0  0  0  0  0  0
   -2.0524    0.7975   -4.7016 H   0  0  0  0  0  0
   -3.1521    1.5997   -2.5100 H   0  0  0  0  0  0
   -2.1965    3.0227   -2.5787 H   0  0  0  0  0  0
    1.9204    1.8528    1.3964 H   0  0  0  0  0  0
   -2.9889   -4.1991   -1.2553 H   0  0  0  0  0  0
   -2.7731   -6.4782   -2.1744 H   0  0  0  0  0  0
   -1.5489   -8.2092   -0.9058 H   0  0  0  0  0  0
   -0.5349   -7.6756    1.2837 H   0  0  0  0  0  0
   -0.7419   -5.3983    2.2144 H   0  0  0  0  0  0
    2.5733    2.0794   -4.1580 H   0  0  0  0  0  0
    1.6543    3.5636   -4.4034 H   0  0  0  0  0  0
    1.7855    2.3814   -5.7021 H   0  0  0  0  0  0
   -4.0671    2.2354   -4.9372 H   0  0  0  0  0  0
   -2.9278    2.5064   -6.2503 H   0  0  0  0  0  0
   -3.0495    3.6749   -4.9385 H   0  0  0  0  0  0
  1  2  1  0  0  0
  1  3  1  0  0  0
  1 21  1  0  0  0
  1 23  1  0  0  0
  2  3  1  0  0  0
  2 33  1  0  0  0
  2 34  1  0  0  0
  3 35  1  0  0  0
  3 36  1  0  0  0
  4  5  2  0  0  0
  4  6  2  0  0  0
  4  7  1  0  0  0
  4 25  1  0  0  0
  7  8  1  0  0  0
  7 11  1  0  0  0
  7 37  1  0  0  0
  8  9  1  0  0  0
  8 38  1  0  0  0
  8 39  1  0  0  0
  9 10  1  0  0  0
  9 12  1  0  0  0
  9 40  1  0  0  0
 10 11  1  0  0  0
 10 13  1  0  0  0
 10 41  1  0  0  0
 11 42  1  0  0  0
 11 43  1  0  0  0
 12 21  1  0  0  0
 12 22  2  0  0  0
 13 14  2  0  0  0
 13 15  1  0  0  0
 15 16  1  0  0  0
 15 20  1  0  0  0
 16 17  1  0  0  0
 16 44  1  0  0  0
 16 45  1  0  0  0
 17 18  1  0  0  0
 17 31  1  0  0  0
 17 46  1  0  0  0
 18 19  1  0  0  0
 19 20  1  0  0  0
 19 32  1  0  0  0
 19 47  1  0  0  0
 20 48  1  0  0  0
 20 49  1  0  0  0
 21 50  1  0  0  0
 23 24  3  0  0  0
 25 26  2  0  0  0
 25 30  1  0  0  0
 26 27  1  0  0  0
 26 51  1  0  0  0
 27 28  2  0  0  0
 27 52  1  0  0  0
 28 29  1  0  0  0
 28 53  1  0  0  0
 29 30  2  0  0  0
 29 54  1  0  0  0
 30 55  1  0  0  0
 31 56  1  0  0  0
 31 57  1  0  0  0
 31 58  1  0  0  0
 32 59  1  0  0  0
 32 60  1  0  0  0
 32 61  1  0  0  0
M  END
> <chembl_id>
CHEMBL3093822

> <chembl_pref_name>
None

> <i_m_ct_stereo_status>
1

> <s_m_source_file>
sdf/inactives_sanitized.sdf

> <i_m_source_file_index>
612

> <i_lp_mmshare_version>
49012

> <i_f3d_flags>
0

> <s_epik_input>
W0NIMl0xW0NAQEhdKFtDSDNdKU9bQ0BASF0oW0NIM10pW0NIMl1OMUMoPU8pW0NASF0oW0NIMl0yKVtDQEhdKEMoPU8pW05IXUMzKEMjTilbQ0gyXVtDSDJdMylbQ0gyXVtDQEhdMlMoPU8pKD1PKWM0W2NIXVtjSF1bY0hdW2NIXVtjSF00

> <s_epik_cmdline>
J2VwaWtfcHl0aG9uJywgJy1waHQnLCAnMC41JywgJy1waCcsICc3LjUnLCAnLW50JywgJy1tYScsICcyMDAnLCAnLWltYWUnLCAnPGluZmlsZS5tYWU+JywgJy1vbWFlJywgJzxvdXRmaWxlLm1hZT4n

> <r_lp_tautomer_probability>
1

> <r_epik_Ionization_Penalty>
  0.0000

> <r_epik_Ionization_Penalty_Charging>
  0.0000

> <r_epik_Ionization_Penalty_Neutral>
  0.0000

> <r_epik_State_Penalty>
 -0.0000

> <r_epik_Charging_Adjusted_Penalty>
0

> <i_epik_Tot_Q>
0

> <i_epik_Tot_abs_Q>
0

> <s_lp_Force_Field>
OPLS3e

> <r_lp_Energy>
32.054072

> <b_lp_Chiralities_Consistent>
1

> <s_lp_Variant>
sdf/inactives_sanitized.sdf:612-1

$$$$
sdf/inactives_sanitized.sdf:613
                    3D
 Schrodinger Suite 2020-1.
 51 54  0  0  1  0            999 V2000
    3.3336    0.9815    0.6161 C   0  0  0  0  0  0
    3.6688    2.1264    1.5480 C   0  0  0  0  0  0
    4.1515    0.7366    1.8713 C   0  0  0  0  0  0
   -3.1174   -1.9413    1.6227 S   0  0  0  0  0  0
   -3.1260   -2.4305    3.0062 O   0  0  0  0  0  0
   -3.0963   -0.4984    1.3542 O   0  0  0  0  0  0
   -1.6676   -2.7649    0.7029 C   0  0  2  0  0  0
   -0.3362   -2.3224    1.3232 C   0  0  0  0  0  0
    0.0814   -1.0797    0.5159 C   0  0  2  0  0  0
   -0.4149   -1.3692   -0.9266 C   0  0  1  0  0  0
   -1.6179   -2.3323   -0.7761 C   0  0  0  0  0  0
    1.5985   -0.7914    0.5762 C   0  0  0  0  0  0
   -0.7957   -0.1034   -1.7364 C   0  0  0  0  0  0
   -0.8117    1.0085   -1.2072 O   0  0  0  0  0  0
   -0.9733   -0.2477   -3.0612 N   0  0  0  0  0  0
    1.9540    0.5047    0.5827 N   0  0  0  0  0  0
    2.4170   -1.7064    0.6814 O   0  0  0  0  0  0
    4.0458    0.8920   -0.6710 C   0  0  0  0  0  0
    4.6042    0.8215   -1.6820 N   0  0  0  0  0  0
   -4.5696   -2.6226    0.8225 C   0  0  0  0  0  0
   -5.2727   -1.8705   -0.1228 C   0  0  0  0  0  0
   -6.3956   -2.4139   -0.7413 C   0  0  0  0  0  0
   -6.8096   -3.7031   -0.4123 C   0  0  0  0  0  0
   -6.1110   -4.4558    0.5297 C   0  0  0  0  0  0
   -4.9874   -3.9147    1.1490 C   0  0  0  0  0  0
   -1.7846    0.5247   -4.0251 C   0  0  0  0  0  0
   -1.2175   -0.4224   -5.1009 C   0  0  0  0  0  0
   -0.3844   -1.1787   -4.0479 C   0  0  0  0  0  0
    4.3984    2.8702    1.2260 H   0  0  0  0  0  0
    2.8793    2.5579    2.1644 H   0  0  0  0  0  0
    5.2144    0.5149    1.7708 H   0  0  0  0  0  0
    3.6948    0.2098    2.7099 H   0  0  0  0  0  0
   -1.8390   -3.8346    0.8285 H   0  0  0  0  0  0
   -0.4205   -2.1267    2.3932 H   0  0  0  0  0  0
    0.3771   -3.1431    1.2254 H   0  0  0  0  0  0
   -0.4263   -0.2368    0.9913 H   0  0  0  0  0  0
    0.3652   -1.8909   -1.4867 H   0  0  0  0  0  0
   -2.5702   -1.8957   -1.0808 H   0  0  0  0  0  0
   -1.4630   -3.2088   -1.4070 H   0  0  0  0  0  0
    1.2413    1.1991    0.4098 H   0  0  0  0  0  0
   -4.9540   -0.8717   -0.3827 H   0  0  0  0  0  0
   -6.9435   -1.8383   -1.4727 H   0  0  0  0  0  0
   -7.6811   -4.1232   -0.8926 H   0  0  0  0  0  0
   -6.4394   -5.4542    0.7784 H   0  0  0  0  0  0
   -4.4443   -4.4991    1.8776 H   0  0  0  0  0  0
   -2.8358    0.3926   -3.7657 H   0  0  0  0  0  0
   -1.4122    1.5499   -4.0401 H   0  0  0  0  0  0
   -2.0006   -1.0602   -5.5135 H   0  0  0  0  0  0
   -0.5722    0.1172   -5.7957 H   0  0  0  0  0  0
   -0.7141   -2.1893   -3.8034 H   0  0  0  0  0  0
    0.6932   -1.0109   -4.0737 H   0  0  0  0  0  0
  1  2  1  0  0  0
  1  3  1  0  0  0
  1 16  1  0  0  0
  1 18  1  0  0  0
  2  3  1  0  0  0
  2 29  1  0  0  0
  2 30  1  0  0  0
  3 31  1  0  0  0
  3 32  1  0  0  0
  4  5  2  0  0  0
  4  6  2  0  0  0
  4  7  1  0  0  0
  4 20  1  0  0  0
  7  8  1  0  0  0
  7 11  1  0  0  0
  7 33  1  0  0  0
  8  9  1  0  0  0
  8 34  1  0  0  0
  8 35  1  0  0  0
  9 10  1  0  0  0
  9 12  1  0  0  0
  9 36  1  0  0  0
 10 11  1  0  0  0
 10 13  1  0  0  0
 10 37  1  0  0  0
 11 38  1  0  0  0
 11 39  1  0  0  0
 12 16  1  0  0  0
 12 17  2  0  0  0
 13 14  2  0  0  0
 13 15  1  0  0  0
 15 26  1  0  0  0
 15 28  1  0  0  0
 16 40  1  0  0  0
 18 19  3  0  0  0
 20 21  2  0  0  0
 20 25  1  0  0  0
 21 22  1  0  0  0
 21 41  1  0  0  0
 22 23  2  0  0  0
 22 42  1  0  0  0
 23 24  1  0  0  0
 23 43  1  0  0  0
 24 25  2  0  0  0
 24 44  1  0  0  0
 25 45  1  0  0  0
 26 27  1  0  0  0
 26 46  1  0  0  0
 26 47  1  0  0  0
 27 28  1  0  0  0
 27 48  1  0  0  0
 27 49  1  0  0  0
 28 50  1  0  0  0
 28 51  1  0  0  0
M  END
> <chembl_id>
CHEMBL3093929

> <chembl_pref_name>
None

> <i_m_ct_stereo_status>
1

> <s_m_source_file>
sdf/inactives_sanitized.sdf

> <i_m_source_file_index>
613

> <i_lp_mmshare_version>
49012

> <i_f3d_flags>
0

> <s_epik_input>
W0NIMl0xW0NIMl1bQ0gyXU4xQyg9TylbQ0BIXShbQ0gyXTIpW0NASF0oQyg9TylbTkhdQzMoQyNOKVtDSDJdW0NIMl0zKVtDSDJdW0NASF0yUyg9TykoPU8pYzRbY0hdW2NIXVtjSF1bY0hdW2NIXTQ=

> <s_epik_cmdline>
J2VwaWtfcHl0aG9uJywgJy1waHQnLCAnMC41JywgJy1waCcsICc3LjUnLCAnLW50JywgJy1tYScsICcyMDAnLCAnLWltYWUnLCAnPGluZmlsZS5tYWU+JywgJy1vbWFlJywgJzxvdXRmaWxlLm1hZT4n

> <r_lp_tautomer_probability>
1

> <r_epik_Ionization_Penalty>
  0.0000

> <r_epik_Ionization_Penalty_Charging>
  0.0000

> <r_epik_Ionization_Penalty_Neutral>
  0.0000

> <r_epik_State_Penalty>
 -0.0000

> <r_epik_Charging_Adjusted_Penalty>
0

> <i_epik_Tot_Q>
0

> <i_epik_Tot_abs_Q>
0

> <s_lp_Force_Field>
OPLS3e

> <r_lp_Energy>
12.613339

> <b_lp_Chiralities_Consistent>
1

> <s_lp_Variant>
sdf/inactives_sanitized.sdf:613-1

$$$$
sdf/inactives_sanitized.sdf:614
                    3D
 Schrodinger Suite 2020-1.
 52 55  0  0  1  0            999 V2000
    3.9411    1.6849   -0.9773 C   0  0  0  0  0  0
    4.4139    3.0841   -0.6455 C   0  0  0  0  0  0
    4.8230    1.9312    0.2335 C   0  0  0  0  0  0
   -1.3733   -3.2150    1.3063 S   0  0  0  0  0  0
   -2.6044   -2.5029    0.9451 O   0  0  0  0  0  0
   -1.2137   -4.6293    0.9486 O   0  0  0  0  0  0
    0.1232   -2.2580    0.6328 C   0  0  2  0  0  0
    0.1594   -0.8002    1.1388 C   0  0  0  0  0  0
    0.5551    0.0695   -0.0796 C   0  0  2  0  0  0
    0.0055   -0.7093   -1.3092 C   0  0  1  0  0  0
    0.1204   -2.1996   -0.9092 C   0  0  0  0  0  0
    2.0941    0.2225   -0.2003 C   0  0  0  0  0  0
   -1.4676   -0.3317   -1.6220 C   0  0  0  0  0  0
   -2.2459   -0.0022   -0.7264 O   0  0  0  0  0  0
   -1.8924   -0.5021   -2.8856 N   0  0  0  0  0  0
    2.5333    1.3646   -0.7573 N   0  0  0  0  0  0
    2.8610   -0.6279    0.2563 O   0  0  0  0  0  0
    4.5587    0.9884   -2.1200 C   0  0  0  0  0  0
    5.0424    0.4414   -3.0176 N   0  0  0  0  0  0
   -1.1782   -3.0977    3.0834 C   0  0  0  0  0  0
   -0.2757   -3.9443    3.7313 C   0  0  0  0  0  0
   -0.1135   -3.8561    5.1113 C   0  0  0  0  0  0
   -0.8533   -2.9231    5.8352 C   0  0  0  0  0  0
   -1.7530   -2.0751    5.1919 C   0  0  0  0  0  0
   -1.9158   -2.1606    3.8116 C   0  0  0  0  0  0
   -1.5193   -1.4653   -3.9488 C   0  0  0  0  0  0
   -2.4459   -0.6482   -4.8641 C   0  0  0  0  0  0
   -2.9719    0.1523   -3.6611 C   0  0  0  0  0  0
   -3.3998   -1.3724   -5.6120 O   0  0  0  0  0  0
    5.1677    3.5482   -1.2821 H   0  0  0  0  0  0
    3.6987    3.8078   -0.2528 H   0  0  0  0  0  0
    5.8601    1.5955    0.2061 H   0  0  0  0  0  0
    4.3890    1.8582    1.2315 H   0  0  0  0  0  0
    0.9990   -2.8056    0.9835 H   0  0  0  0  0  0
   -0.8268   -0.4778    1.4744 H   0  0  0  0  0  0
    0.8219   -0.6728    1.9970 H   0  0  0  0  0  0
    0.1568    1.0831    0.0128 H   0  0  0  0  0  0
    0.5642   -0.4655   -2.2165 H   0  0  0  0  0  0
   -0.6533   -2.8300   -1.3524 H   0  0  0  0  0  0
    1.0679   -2.5830   -1.2908 H   0  0  0  0  0  0
    1.8591    1.9869   -1.1785 H   0  0  0  0  0  0
    0.2999   -4.6659    3.1699 H   0  0  0  0  0  0
    0.5830   -4.5078    5.6181 H   0  0  0  0  0  0
   -0.7276   -2.8560    6.9058 H   0  0  0  0  0  0
   -2.3213   -1.3545    5.7611 H   0  0  0  0  0  0
   -2.6112   -1.4992    3.3158 H   0  0  0  0  0  0
   -0.4686   -1.4047   -4.2344 H   0  0  0  0  0  0
   -1.8236   -2.4847   -3.7078 H   0  0  0  0  0  0
   -1.8981   -0.0275   -5.5755 H   0  0  0  0  0  0
   -2.8319    1.2289   -3.7635 H   0  0  0  0  0  0
   -3.9638   -0.1016   -3.2845 H   0  0  0  0  0  0
   -2.9386   -1.8884   -6.2776 H   0  0  0  0  0  0
  1  2  1  0  0  0
  1  3  1  0  0  0
  1 16  1  0  0  0
  1 18  1  0  0  0
  2  3  1  0  0  0
  2 30  1  0  0  0
  2 31  1  0  0  0
  3 32  1  0  0  0
  3 33  1  0  0  0
  4  5  2  0  0  0
  4  6  2  0  0  0
  4  7  1  0  0  0
  4 20  1  0  0  0
  7  8  1  0  0  0
  7 11  1  0  0  0
  7 34  1  0  0  0
  8  9  1  0  0  0
  8 35  1  0  0  0
  8 36  1  0  0  0
  9 10  1  0  0  0
  9 12  1  0  0  0
  9 37  1  0  0  0
 10 11  1  0  0  0
 10 13  1  0  0  0
 10 38  1  0  0  0
 11 39  1  0  0  0
 11 40  1  0  0  0
 12 16  1  0  0  0
 12 17  2  0  0  0
 13 14  2  0  0  0
 13 15  1  0  0  0
 15 26  1  0  0  0
 15 28  1  0  0  0
 16 41  1  0  0  0
 18 19  3  0  0  0
 20 21  2  0  0  0
 20 25  1  0  0  0
 21 22  1  0  0  0
 21 42  1  0  0  0
 22 23  2  0  0  0
 22 43  1  0  0  0
 23 24  1  0  0  0
 23 44  1  0  0  0
 24 25  2  0  0  0
 24 45  1  0  0  0
 25 46  1  0  0  0
 26 27  1  0  0  0
 26 47  1  0  0  0
 26 48  1  0  0  0
 27 28  1  0  0  0
 27 29  1  0  0  0
 27 49  1  0  0  0
 28 50  1  0  0  0
 28 51  1  0  0  0
 29 52  1  0  0  0
M  END
> <chembl_id>
CHEMBL3093930

> <chembl_pref_name>
None

> <i_m_ct_stereo_status>
1

> <s_m_source_file>
sdf/inactives_sanitized.sdf

> <i_m_source_file_index>
614

> <i_lp_mmshare_version>
49012

> <i_f3d_flags>
0

> <s_epik_input>
W0NIMl0xW0NIXShbT0hdKVtDSDJdTjFDKD1PKVtDQEhdKFtDSDJdMilbQ0BIXShDKD1PKVtOSF1DMyhDI04pW0NIMl1bQ0gyXTMpW0NIMl1bQ0BIXTJTKD1PKSg9TyljNFtjSF1bY0hdW2NIXVtjSF1bY0hdNA==

> <s_epik_cmdline>
J2VwaWtfcHl0aG9uJywgJy1waHQnLCAnMC41JywgJy1waCcsICc3LjUnLCAnLW50JywgJy1tYScsICcyMDAnLCAnLWltYWUnLCAnPGluZmlsZS5tYWU+JywgJy1vbWFlJywgJzxvdXRmaWxlLm1hZT4n

> <r_lp_tautomer_probability>
1

> <r_epik_Ionization_Penalty>
  0.0000

> <r_epik_Ionization_Penalty_Charging>
  0.0000

> <r_epik_Ionization_Penalty_Neutral>
  0.0000

> <r_epik_State_Penalty>
 -0.0000

> <r_epik_Charging_Adjusted_Penalty>
0

> <i_epik_Tot_Q>
0

> <i_epik_Tot_abs_Q>
0

> <s_lp_Force_Field>
OPLS3e

> <r_lp_Energy>
8.172074

> <b_lp_Chiralities_Consistent>
1

> <s_lp_Variant>
sdf/inactives_sanitized.sdf:614-1

$$$$
sdf/inactives_sanitized.sdf:615
                    3D
 Schrodinger Suite 2020-1.
 39 41  0  0  1  0            999 V2000
   -2.6130    0.1776    0.9878 N   0  0  0  0  0  0
   -2.1974   -0.9265    0.3009 C   0  0  0  0  0  0
   -0.9360   -1.0727   -0.2011 N   0  0  0  0  0  0
   -0.0879   -0.0234   -0.0163 C   0  0  0  0  0  0
   -0.4100    1.1172    0.6463 N   0  0  0  0  0  0
   -1.6813    1.1555    1.1201 C   0  0  0  0  0  0
   -3.0871   -1.9984    0.1676 N   0  0  0  0  0  0
   -2.8233   -3.1077   -0.7745 C   0  0  0  0  0  0
   -3.6602   -4.3774   -0.5174 C   0  0  0  0  0  0
   -5.0373   -4.0487   -0.4441 O   0  0  0  0  0  0
   -5.2978   -3.1614    0.6305 C   0  0  0  0  0  0
   -4.5340   -1.8375    0.4250 C   0  0  0  0  0  0
   -2.0799    2.3518    1.8424 C   0  0  0  0  0  0
   -2.3972    3.3047    2.4179 N   0  0  0  0  0  0
    1.2303   -0.0963   -0.4905 N   0  0  0  0  0  0
    1.8811   -1.0262   -1.3203 C   0  0  0  0  0  0
    3.2657   -1.1573   -1.1888 C   0  0  0  0  0  0
    3.9655   -2.0547   -1.9910 C   0  0  0  0  0  0
    3.2843   -2.8139   -2.9424 C   0  0  0  0  0  0
    1.9024   -2.6856   -3.0827 C   0  0  0  0  0  0
    1.2026   -1.7885   -2.2802 C   0  0  0  0  0  0
    3.9719   -3.7128   -3.7205 O   0  0  0  0  0  0
    4.4517   -3.2082   -4.9652 C   0  0  0  0  0  0
    5.0923   -4.2002   -5.5812 F   0  0  0  0  0  0
    3.4508   -2.8171   -5.7569 F   0  0  0  0  0  0
    5.3197   -2.2094   -4.7906 F   0  0  0  0  0  0
   -2.9769   -2.7511   -1.7939 H   0  0  0  0  0  0
   -1.7751   -3.4013   -0.7065 H   0  0  0  0  0  0
   -3.5156   -5.0885   -1.3311 H   0  0  0  0  0  0
   -3.3341   -4.8832    0.3938 H   0  0  0  0  0  0
   -6.3701   -2.9684    0.6700 H   0  0  0  0  0  0
   -5.0329   -3.6217    1.5846 H   0  0  0  0  0  0
   -4.6784   -1.2452    1.3292 H   0  0  0  0  0  0
   -4.9782   -1.2657   -0.3910 H   0  0  0  0  0  0
    1.7992    0.6966   -0.2313 H   0  0  0  0  0  0
    3.8058   -0.5711   -0.4588 H   0  0  0  0  0  0
    5.0346   -2.1590   -1.8766 H   0  0  0  0  0  0
    1.3744   -3.2755   -3.8177 H   0  0  0  0  0  0
    0.1378   -1.6896   -2.4262 H   0  0  0  0  0  0
  1  2  2  0  0  0
  1  6  1  0  0  0
  2  3  1  0  0  0
  2  7  1  0  0  0
  3  4  2  0  0  0
  4  5  1  0  0  0
  4 15  1  0  0  0
  5  6  2  0  0  0
  6 13  1  0  0  0
  7  8  1  0  0  0
  7 12  1  0  0  0
  8  9  1  0  0  0
  8 27  1  0  0  0
  8 28  1  0  0  0
  9 10  1  0  0  0
  9 29  1  0  0  0
  9 30  1  0  0  0
 10 11  1  0  0  0
 11 12  1  0  0  0
 11 31  1  0  0  0
 11 32  1  0  0  0
 12 33  1  0  0  0
 12 34  1  0  0  0
 13 14  3  0  0  0
 15 16  1  0  0  0
 15 35  1  0  0  0
 16 17  2  0  0  0
 16 21  1  0  0  0
 17 18  1  0  0  0
 17 36  1  0  0  0
 18 19  2  0  0  0
 18 37  1  0  0  0
 19 20  1  0  0  0
 19 22  1  0  0  0
 20 21  2  0  0  0
 20 38  1  0  0  0
 21 39  1  0  0  0
 22 23  1  0  0  0
 23 24  1  0  0  0
 23 25  1  0  0  0
 23 26  1  0  0  0
M  END
> <chembl_id>
CHEMBL4251253

> <chembl_pref_name>
None

> <s_m_source_file>
sdf/inactives_sanitized.sdf

> <i_m_source_file_index>
615

> <i_lp_mmshare_version>
49012

> <i_m_ct_stereo_status>
1

> <i_f3d_flags>
0

> <s_epik_input>
W0NIMl0xW0NIMl1PW0NIMl1bQ0gyXU4xYzJuYyhDI04pbmMobjIpW05IXWMzW2NIXVtjSF1jKFtjSF1bY0hdMylPQyhGKShGKUY=

> <s_epik_cmdline>
J2VwaWtfcHl0aG9uJywgJy1waHQnLCAnMC41JywgJy1waCcsICc3LjUnLCAnLW50JywgJy1tYScsICcyMDAnLCAnLWltYWUnLCAnPGluZmlsZS5tYWU+JywgJy1vbWFlJywgJzxvdXRmaWxlLm1hZT4n

> <r_lp_tautomer_probability>
1

> <r_epik_Ionization_Penalty>
  0.0001

> <r_epik_Ionization_Penalty_Charging>
  0.0000

> <r_epik_Ionization_Penalty_Neutral>
  0.0001

> <r_epik_State_Penalty>
 -0.0000

> <r_epik_Charging_Adjusted_Penalty>
0

> <i_epik_Tot_Q>
0

> <i_epik_Tot_abs_Q>
0

> <s_lp_Force_Field>
OPLS3e

> <r_lp_Energy>
25.487339

> <b_lp_Chiralities_Consistent>
1

> <s_lp_Variant>
sdf/inactives_sanitized.sdf:615-1

$$$$
sdf/inactives_sanitized.sdf:616
                    3D
 Schrodinger Suite 2020-1.
 49 51  0  0  1  0            999 V2000
   -2.8575   -7.4314    0.0996 C   0  0  0  0  0  0
   -2.3594   -6.1239    0.6883 C   0  0  0  0  0  0
   -1.4640   -6.1311    1.7594 C   0  0  0  0  0  0
   -1.0102   -4.9293    2.2981 C   0  0  0  0  0  0
   -1.4352   -3.7155    1.7593 C   0  0  0  0  0  0
   -2.3143   -3.6864    0.6652 C   0  0  0  0  0  0
   -2.7837   -4.9052    0.1505 C   0  0  0  0  0  0
   -2.8337   -2.3916    0.1085 C   0  0  0  0  0  0
   -3.9431   -2.3603   -0.4305 O   0  0  0  0  0  0
   -2.0304   -1.1289    0.2159 C   0  0  0  0  0  0
   -2.6856    0.1025    0.3184 C   0  0  0  0  0  0
   -1.9567    1.2846    0.3624 C   0  0  0  0  0  0
   -0.5672    1.2499    0.2852 C   0  0  0  0  0  0
    0.1413    0.0371    0.1599 C   0  0  0  0  0  0
   -0.6303   -1.1412    0.1145 C   0  0  0  0  0  0
    1.6384    0.0170    0.0492 C   0  0  0  0  0  0
    2.2178    1.1559   -0.1303 N   0  0  0  0  0  0
    3.5727    1.2166   -0.1066 N   0  0  0  0  0  0
    4.2929    2.3554   -0.3094 C   0  0  0  0  0  0
    5.9468    2.3219   -0.2604 S   0  0  0  0  0  0
    3.6355    3.5157   -0.5545 N   0  0  0  0  0  0
    2.3710   -1.2897    0.0928 C   0  0  0  0  0  0
    3.3421   -1.6197   -0.8689 C   0  0  0  0  0  0
    4.0292   -2.8314   -0.8177 C   0  0  0  0  0  0
    3.7608   -3.7411    0.2010 C   0  0  0  0  0  0
    2.8018   -3.4423    1.1690 C   0  0  0  0  0  0
    2.5304   -4.4273    2.2906 C   0  0  0  0  0  0
    2.1157   -2.2253    1.1098 C   0  0  0  0  0  0
   -3.0159   -7.3365   -0.9754 H   0  0  0  0  0  0
   -3.7982   -7.7278    0.5643 H   0  0  0  0  0  0
   -2.1272   -8.2296    0.2387 H   0  0  0  0  0  0
   -1.1273   -7.0658    2.1841 H   0  0  0  0  0  0
   -0.3341   -4.9377    3.1399 H   0  0  0  0  0  0
   -1.0829   -2.8021    2.2164 H   0  0  0  0  0  0
   -3.4795   -4.9150   -0.6774 H   0  0  0  0  0  0
   -3.7642    0.1547    0.3711 H   0  0  0  0  0  0
   -2.4692    2.2312    0.4520 H   0  0  0  0  0  0
   -0.0482    2.1969    0.3241 H   0  0  0  0  0  0
   -0.1474   -2.0930   -0.0460 H   0  0  0  0  0  0
    4.0462    0.3412    0.0659 H   0  0  0  0  0  0
    2.6264    3.5211   -0.5910 H   0  0  0  0  0  0
    4.1589    4.3658   -0.7049 H   0  0  0  0  0  0
    3.5654   -0.9394   -1.6786 H   0  0  0  0  0  0
    4.7698   -3.0644   -1.5684 H   0  0  0  0  0  0
    4.3004   -4.6764    0.2372 H   0  0  0  0  0  0
    1.9686   -5.2839    1.9177 H   0  0  0  0  0  0
    1.9821   -3.9664    3.1128 H   0  0  0  0  0  0
    3.4698   -4.7996    2.7001 H   0  0  0  0  0  0
    1.3875   -2.0003    1.8768 H   0  0  0  0  0  0
  1  2  1  0  0  0
  1 29  1  0  0  0
  1 30  1  0  0  0
  1 31  1  0  0  0
  2  3  2  0  0  0
  2  7  1  0  0  0
  3  4  1  0  0  0
  3 32  1  0  0  0
  4  5  2  0  0  0
  4 33  1  0  0  0
  5  6  1  0  0  0
  5 34  1  0  0  0
  6  7  2  0  0  0
  6  8  1  0  0  0
  7 35  1  0  0  0
  8  9  2  0  0  0
  8 10  1  0  0  0
 10 11  2  0  0  0
 10 15  1  0  0  0
 11 12  1  0  0  0
 11 36  1  0  0  0
 12 13  2  0  0  0
 12 37  1  0  0  0
 13 14  1  0  0  0
 13 38  1  0  0  0
 14 15  2  0  0  0
 14 16  1  0  0  0
 15 39  1  0  0  0
 16 17  2  0  0  0
 16 22  1  0  0  0
 17 18  1  0  0  0
 18 19  1  0  0  0
 18 40  1  0  0  0
 19 20  2  0  0  0
 19 21  1  0  0  0
 21 41  1  0  0  0
 21 42  1  0  0  0
 22 23  2  0  0  0
 22 28  1  0  0  0
 23 24  1  0  0  0
 23 43  1  0  0  0
 24 25  2  0  0  0
 24 44  1  0  0  0
 25 26  1  0  0  0
 25 45  1  0  0  0
 26 27  1  0  0  0
 26 28  2  0  0  0
 27 46  1  0  0  0
 27 47  1  0  0  0
 27 48  1  0  0  0
 28 49  1  0  0  0
M  END
> <chembl_id>
CHEMBL3629200

> <chembl_pref_name>
None

> <s_m_source_file>
sdf/inactives_sanitized.sdf

> <i_m_source_file_index>
616

> <i_lp_mmshare_version>
49012

> <i_m_ct_stereo_status>
1

> <i_f3d_flags>
0

> <s_epik_input>
W0NIM11jMVtjSF1bY0hdW2NIXWMoW2NIXTEpQyg9TyljMltjSF1bY0hdW2NIXWMoW2NIXTIpL0MoPU4vW05IXUMoPVMpW05IMl0pYzNbY0hdW2NIXVtjSF1jKFtDSDNdKVtjSF0z

> <s_epik_cmdline>
J2VwaWtfcHl0aG9uJywgJy1waHQnLCAnMC41JywgJy1waCcsICc3LjUnLCAnLW50JywgJy1tYScsICcyMDAnLCAnLWltYWUnLCAnPGluZmlsZS5tYWU+JywgJy1vbWFlJywgJzxvdXRmaWxlLm1hZT4n

> <r_lp_tautomer_probability>
1

> <r_epik_Ionization_Penalty>
  0.0001

> <r_epik_Ionization_Penalty_Charging>
  0.0000

> <r_epik_Ionization_Penalty_Neutral>
  0.0001

> <r_epik_State_Penalty>
 -0.0000

> <r_epik_Charging_Adjusted_Penalty>
0

> <i_epik_Tot_Q>
0

> <i_epik_Tot_abs_Q>
0

> <s_epik_Chemistry_Notes>
This compound has an imine and may undergo hydrolysis.

> <s_lp_Force_Field>
OPLS3e

> <r_lp_Energy>
64.806459

> <b_lp_Chiralities_Consistent>
1

> <s_lp_Variant>
sdf/inactives_sanitized.sdf:616-1

$$$$
sdf/inactives_sanitized.sdf:617
                    3D
 Schrodinger Suite 2020-1.
 61 65  0  0  1  0            999 V2000
   -4.8952    7.4989    2.9196 C   0  0  0  0  0  0
   -4.2146    8.0590    1.7532 N   0  0  0  0  0  0
   -4.4058    9.3429    1.3607 C   0  0  0  0  0  0
   -5.1309   10.1986    1.8684 O   0  0  0  0  0  0
   -3.5297    9.5592    0.1250 C   0  0  0  0  0  0
   -2.8683    8.2325   -0.0597 C   0  0  0  0  0  0
   -1.9521    7.7814   -1.0070 C   0  0  0  0  0  0
   -1.4902    6.4650   -0.9404 C   0  0  0  0  0  0
   -1.9336    5.5836    0.0623 C   0  0  0  0  0  0
   -2.8591    6.0654    1.0044 C   0  0  0  0  0  0
   -3.3127    7.3842    0.9329 C   0  0  0  0  0  0
   -1.4335    4.1751    0.1252 C   0  0  0  0  0  0
   -1.2937    3.5106    1.3530 C   0  0  0  0  0  0
   -0.8264    2.1984    1.4145 C   0  0  0  0  0  0
   -0.4847    1.5166    0.2447 C   0  0  0  0  0  0
    0.0356    0.0854    0.3164 C   0  0  0  0  0  0
    1.5596   -0.0245    0.1014 C   0  0  2  0  0  0
    1.9803   -1.4287    0.0770 N   0  0  0  0  0  0
    3.2487   -1.8798   -0.0134 C   0  0  0  0  0  0
    4.2134   -1.1168   -0.0766 O   0  0  0  0  0  0
    3.4697   -3.4158   -0.0307 C   0  0  2  0  0  0
    2.8854   -4.1308    1.2225 C   0  0  0  0  0  0
    3.0078   -5.6742    1.0681 C   0  0  0  0  0  0
    3.6448   -6.0626   -0.2969 C   0  0  2  0  0  0
    5.0457   -5.3947   -0.3964 C   0  0  0  0  0  0
    4.9486   -3.8480   -0.2643 C   0  0  0  0  0  0
    2.7549   -5.4560   -1.4209 C   0  0  0  0  0  0
    2.6633   -3.9160   -1.2570 N   0  3  0  0  0  0
    2.3105    0.7780    1.0902 C   0  0  0  0  0  0
    2.8968    1.4065    1.8651 N   0  0  0  0  0  0
   -0.6185    2.1637   -0.9872 C   0  0  0  0  0  0
   -0.2964    1.5239   -2.1353 F   0  0  0  0  0  0
   -1.0877    3.4763   -1.0416 C   0  0  0  0  0  0
   -4.1610    7.1288    3.6357 H   0  0  0  0  0  0
   -5.5234    6.6606    2.6176 H   0  0  0  0  0  0
   -5.5267    8.2258    3.4328 H   0  0  0  0  0  0
   -4.1519    9.8293   -0.7288 H   0  0  0  0  0  0
   -2.8078   10.3538    0.3161 H   0  0  0  0  0  0
   -1.5922    8.4343   -1.7885 H   0  0  0  0  0  0
   -0.7698    6.1391   -1.6761 H   0  0  0  0  0  0
   -3.2302    5.4134    1.7813 H   0  0  0  0  0  0
   -1.5348    4.0121    2.2786 H   0  0  0  0  0  0
   -0.7234    1.7182    2.3769 H   0  0  0  0  0  0
   -0.2317   -0.3526    1.2801 H   0  0  0  0  0  0
   -0.4971   -0.5092   -0.4281 H   0  0  0  0  0  0
    1.8026    0.4042   -0.8727 H   0  0  0  0  0  0
    1.2326   -2.1037    0.0147 H   0  0  0  0  0  0
    3.4158   -3.8065    2.1199 H   0  0  0  0  0  0
    1.8386   -3.8641    1.3809 H   0  0  0  0  0  0
    3.6086   -6.0819    1.8830 H   0  0  0  0  0  0
    2.0260   -6.1402    1.1675 H   0  0  0  0  0  0
    3.7196   -7.1462   -0.4003 H   0  0  0  0  0  0
    5.6991   -5.7926    0.3818 H   0  0  0  0  0  0
    5.5214   -5.6608   -1.3419 H   0  0  0  0  0  0
    5.5758   -3.5098    0.5628 H   0  0  0  0  0  0
    5.3553   -3.3771   -1.1616 H   0  0  0  0  0  0
    3.1607   -5.6233   -2.4196 H   0  0  0  0  0  0
    1.7267   -5.8190   -1.3902 H   0  0  0  0  0  0
    3.0201   -3.4738   -2.0925 H   0  0  0  0  0  0
   -1.1895    3.9445   -2.0096 H   0  0  0  0  0  0
    1.6937   -3.6530   -1.1557 H   0  0  0  0  0  0
  1  2  1  0  0  0
  1 34  1  0  0  0
  1 35  1  0  0  0
  1 36  1  0  0  0
  2  3  1  0  0  0
  2 11  1  0  0  0
  3  4  2  0  0  0
  3  5  1  0  0  0
  5  6  1  0  0  0
  5 37  1  0  0  0
  5 38  1  0  0  0
  6  7  2  0  0  0
  6 11  1  0  0  0
  7  8  1  0  0  0
  7 39  1  0  0  0
  8  9  2  0  0  0
  8 40  1  0  0  0
  9 10  1  0  0  0
  9 12  1  0  0  0
 10 11  2  0  0  0
 10 41  1  0  0  0
 12 13  2  0  0  0
 12 33  1  0  0  0
 13 14  1  0  0  0
 13 42  1  0  0  0
 14 15  2  0  0  0
 14 43  1  0  0  0
 15 16  1  0  0  0
 15 31  1  0  0  0
 16 17  1  0  0  0
 16 44  1  0  0  0
 16 45  1  0  0  0
 17 18  1  0  0  0
 17 29  1  0  0  0
 17 46  1  0  0  0
 18 19  1  0  0  0
 18 47  1  0  0  0
 19 20  2  0  0  0
 19 21  1  0  0  0
 21 22  1  0  0  0
 21 26  1  0  0  0
 21 28  1  0  0  0
 22 23  1  0  0  0
 22 48  1  0  0  0
 22 49  1  0  0  0
 23 24  1  0  0  0
 23 50  1  0  0  0
 23 51  1  0  0  0
 24 25  1  0  0  0
 24 27  1  0  0  0
 24 52  1  0  0  0
 25 26  1  0  0  0
 25 53  1  0  0  0
 25 54  1  0  0  0
 26 55  1  0  0  0
 26 56  1  0  0  0
 27 28  1  0  0  0
 27 57  1  0  0  0
 27 58  1  0  0  0
 28 59  1  0  0  0
 28 61  1  0  0  0
 29 30  3  0  0  0
 31 32  1  0  0  0
 31 33  2  0  0  0
 33 60  1  0  0  0
M  CHG  1  28   1
M  END
> <chembl_id>
CHEMBL3702592

> <chembl_pref_name>
None

> <i_m_ct_stereo_status>
1

> <s_m_source_file>
sdf/inactives_sanitized.sdf

> <i_m_source_file_index>
617

> <i_lp_mmshare_version>
49012

> <i_f3d_flags>
0

> <s_epik_input>
Tz1DKFtDSDJdMSlOKFtDSDNdKWMoYzEyKVtjSF1jKFtjSF1bY0hdMiktYzNbY0hdW2NIXWMoYyhGKVtjSF0zKVtDSDJdW0NAQEhdKEMjTilbTkhdQyg9TylbQ0BdNDVbQ0gyXVtDSDJdW0NASF0oW0NIMl1bQ0gyXTQpW0NIMl1bTkhdNQ==

> <s_epik_cmdline>
J2VwaWtfcHl0aG9uJywgJy1waHQnLCAnMC41JywgJy1waCcsICc3LjUnLCAnLW50JywgJy1tYScsICcyMDAnLCAnLWltYWUnLCAnPGluZmlsZS5tYWU+JywgJy1vbWFlJywgJzxvdXRmaWxlLm1hZT4n

> <r_epik_Ionization_Penalty>
  0.2492

> <r_epik_Ionization_Penalty_Charging>
  0.2491

> <r_epik_Ionization_Penalty_Neutral>
  0.0001

> <r_epik_State_Penalty>
  0.2404

> <r_epik_Charging_Adjusted_Penalty>
0.489493738808436

> <i_epik_Tot_Q>
1

> <i_epik_Tot_abs_Q>
1

> <s_lp_Force_Field>
OPLS3e

> <r_lp_Energy>
50.703815

> <b_lp_Chiralities_Consistent>
1

> <s_lp_Variant>
sdf/inactives_sanitized.sdf:617-1

$$$$
sdf/inactives_sanitized.sdf:617
                    3D
 Schrodinger Suite 2020-1.
 60 64  0  0  1  0            999 V2000
   -1.2808    8.5140   -3.3618 C   0  0  0  0  0  0
   -2.0010    8.6975   -2.1029 N   0  0  0  0  0  0
   -2.5736    9.8818   -1.7739 C   0  0  0  0  0  0
   -2.6061   10.9241   -2.4287 O   0  0  0  0  0  0
   -3.2022    9.6964   -0.3912 C   0  0  0  0  0  0
   -2.8779    8.2769   -0.0573 C   0  0  0  0  0  0
   -3.1693    7.5019    1.0630 C   0  0  0  0  0  0
   -2.7303    6.1769    1.1124 C   0  0  0  0  0  0
   -1.9998    5.6091    0.0530 C   0  0  0  0  0  0
   -1.7221    6.4126   -1.0661 C   0  0  0  0  0  0
   -2.1637    7.7367   -1.1066 C   0  0  0  0  0  0
   -1.5279    4.1921    0.1170 C   0  0  0  0  0  0
   -1.1530    3.6095    1.3368 C   0  0  0  0  0  0
   -0.7026    2.2914    1.3981 C   0  0  0  0  0  0
   -0.6167    1.5210    0.2364 C   0  0  0  0  0  0
   -0.1067    0.0856    0.3060 C   0  0  0  0  0  0
    1.3258   -0.0844   -0.2421 C   0  0  2  0  0  0
    1.7364   -1.4900   -0.2010 N   0  0  0  0  0  0
    2.9183   -1.9823   -0.6276 C   0  0  0  0  0  0
    3.7816   -1.2517   -1.1175 O   0  0  0  0  0  0
    3.2061   -3.5092   -0.4965 C   0  0  2  0  0  0
    4.3314   -3.7345    0.5640 C   0  0  0  0  0  0
    4.6453   -5.2505    0.7069 C   0  0  0  0  0  0
    3.7264   -6.0829   -0.2274 C   0  0  2  0  0  0
    3.9559   -5.6362   -1.6987 C   0  0  0  0  0  0
    3.6640   -4.1162   -1.8603 C   0  0  0  0  0  0
    2.2626   -5.6935    0.1387 C   0  0  0  0  0  0
    1.9998   -4.2529   -0.0610 N   0  0  2  0  0  0
    2.2896    0.7984    0.4483 C   0  0  0  0  0  0
    3.0429    1.4905    0.9897 N   0  0  0  0  0  0
   -0.9924    2.0850   -0.9865 C   0  0  0  0  0  0
   -0.9244    1.3585   -2.1262 F   0  0  0  0  0  0
   -1.4411    3.4047   -1.0411 C   0  0  0  0  0  0
   -1.8481    7.8580   -4.0225 H   0  0  0  0  0  0
   -0.3122    8.0493   -3.1754 H   0  0  0  0  0  0
   -1.1029    9.4538   -3.8870 H   0  0  0  0  0  0
   -2.7550   10.3959    0.3158 H   0  0  0  0  0  0
   -4.2773    9.8703   -0.4451 H   0  0  0  0  0  0
   -3.7289    7.9100    1.8918 H   0  0  0  0  0  0
   -2.9733    5.5887    1.9851 H   0  0  0  0  0  0
   -1.1542    6.0111   -1.8925 H   0  0  0  0  0  0
   -1.1926    4.1816    2.2522 H   0  0  0  0  0  0
   -0.4110    1.8756    2.3518 H   0  0  0  0  0  0
   -0.1475   -0.2674    1.3383 H   0  0  0  0  0  0
   -0.8001   -0.5525   -0.2449 H   0  0  0  0  0  0
    1.3303    0.2291   -1.2877 H   0  0  0  0  0  0
    1.0450   -2.1455    0.1337 H   0  0  0  0  0  0
    5.2420   -3.2014    0.2827 H   0  0  0  0  0  0
    4.0342   -3.3295    1.5337 H   0  0  0  0  0  0
    5.6922   -5.4411    0.4656 H   0  0  0  0  0  0
    4.5148   -5.5675    1.7429 H   0  0  0  0  0  0
    3.8960   -7.1530   -0.1027 H   0  0  0  0  0  0
    4.9810   -5.8567   -2.0003 H   0  0  0  0  0  0
    3.3170   -6.2146   -2.3680 H   0  0  0  0  0  0
    4.5620   -3.6134   -2.2244 H   0  0  0  0  0  0
    2.9029   -3.9643   -2.6283 H   0  0  0  0  0  0
    1.5589   -6.2623   -0.4699 H   0  0  0  0  0  0
    2.0499   -5.9481    1.1777 H   0  0  0  0  0  0
    1.3067   -4.1772   -0.7917 H   0  0  0  0  0  0
   -1.7307    3.8098   -1.9996 H   0  0  0  0  0  0
  1  2  1  0  0  0
  1 34  1  0  0  0
  1 35  1  0  0  0
  1 36  1  0  0  0
  2  3  1  0  0  0
  2 11  1  0  0  0
  3  4  2  0  0  0
  3  5  1  0  0  0
  5  6  1  0  0  0
  5 37  1  0  0  0
  5 38  1  0  0  0
  6  7  2  0  0  0
  6 11  1  0  0  0
  7  8  1  0  0  0
  7 39  1  0  0  0
  8  9  2  0  0  0
  8 40  1  0  0  0
  9 10  1  0  0  0
  9 12  1  0  0  0
 10 11  2  0  0  0
 10 41  1  0  0  0
 12 13  2  0  0  0
 12 33  1  0  0  0
 13 14  1  0  0  0
 13 42  1  0  0  0
 14 15  2  0  0  0
 14 43  1  0  0  0
 15 16  1  0  0  0
 15 31  1  0  0  0
 16 17  1  0  0  0
 16 44  1  0  0  0
 16 45  1  0  0  0
 17 18  1  0  0  0
 17 29  1  0  0  0
 17 46  1  0  0  0
 18 19  1  0  0  0
 18 47  1  0  0  0
 19 20  2  0  0  0
 19 21  1  0  0  0
 21 22  1  0  0  0
 21 26  1  0  0  0
 21 28  1  0  0  0
 22 23  1  0  0  0
 22 48  1  0  0  0
 22 49  1  0  0  0
 23 24  1  0  0  0
 23 50  1  0  0  0
 23 51  1  0  0  0
 24 25  1  0  0  0
 24 27  1  0  0  0
 24 52  1  0  0  0
 25 26  1  0  0  0
 25 53  1  0  0  0
 25 54  1  0  0  0
 26 55  1  0  0  0
 26 56  1  0  0  0
 27 28  1  0  0  0
 27 57  1  0  0  0
 27 58  1  0  0  0
 28 59  1  0  0  0
 29 30  3  0  0  0
 31 32  1  0  0  0
 31 33  2  0  0  0
 33 60  1  0  0  0
M  END
> <chembl_id>
CHEMBL3702592

> <chembl_pref_name>
None

> <i_m_ct_stereo_status>
1

> <s_m_source_file>
sdf/inactives_sanitized.sdf

> <i_m_source_file_index>
617

> <i_lp_mmshare_version>
49012

> <i_f3d_flags>
0

> <s_epik_input>
Tz1DKFtDSDJdMSlOKFtDSDNdKWMoYzEyKVtjSF1jKFtjSF1bY0hdMiktYzNbY0hdW2NIXWMoYyhGKVtjSF0zKVtDSDJdW0NAQEhdKEMjTilbTkhdQyg9TylbQ0BdNDVbQ0gyXVtDSDJdW0NASF0oW0NIMl1bQ0gyXTQpW0NIMl1bTkhdNQ==

> <s_epik_cmdline>
J2VwaWtfcHl0aG9uJywgJy1waHQnLCAnMC41JywgJy1waCcsICc3LjUnLCAnLW50JywgJy1tYScsICcyMDAnLCAnLWltYWUnLCAnPGluZmlsZS5tYWU+JywgJy1vbWFlJywgJzxvdXRmaWxlLm1hZT4n

> <r_epik_Ionization_Penalty>
  0.6336

> <r_epik_Ionization_Penalty_Charging>
  0.0000

> <r_epik_Ionization_Penalty_Neutral>
  0.6336

> <r_epik_State_Penalty>
  0.6506

> <r_epik_Charging_Adjusted_Penalty>
0.650608926039391

> <i_epik_Tot_Q>
0

> <i_epik_Tot_abs_Q>
0

> <s_lp_Force_Field>
OPLS3e

> <r_lp_Energy>
43.847667

> <b_lp_Chiralities_Consistent>
1

> <s_lp_Variant>
sdf/inactives_sanitized.sdf:617-2

$$$$
sdf/inactives_sanitized.sdf:618
                    3D
 Schrodinger Suite 2020-1.
 61 65  0  0  1  0            999 V2000
    0.4507    1.8007    2.3383 F   0  0  0  0  0  0
   -0.2253    2.2362    1.2501 C   0  0  0  0  0  0
   -0.6859    3.5520    1.2105 C   0  0  0  0  0  0
   -1.3887    4.0450    0.1002 C   0  0  0  0  0  0
   -1.6105    3.1720   -0.9755 C   0  0  0  0  0  0
   -1.1531    1.8553   -0.9421 C   0  0  0  0  0  0
   -0.4580    1.3786    0.1714 C   0  0  0  0  0  0
    0.0581   -0.0574    0.1943 C   0  0  0  0  0  0
    1.5898   -0.1725    0.0275 C   0  0  2  0  0  0
    2.0638    0.4798   -1.1964 N   0  0  0  0  0  0
    2.7545    1.6340   -1.2533 C   0  0  0  0  0  0
    3.1216    2.2323   -0.2387 O   0  0  0  0  0  0
    3.0303    2.1865   -2.6782 C   0  0  2  0  0  0
    1.7243    2.6216   -3.4035 C   0  0  0  0  0  0
    2.0601    3.2580   -4.7825 C   0  0  0  0  0  0
    3.5959    3.3187   -5.0237 C   0  0  2  0  0  0
    4.1707    1.8749   -4.9394 C   0  0  0  0  0  0
    3.8660    1.2171   -3.5625 C   0  0  0  0  0  0
    4.2197    4.1400   -3.8588 C   0  0  0  0  0  0
    3.8852    3.4706   -2.5004 N   0  3  0  0  0  0
    2.0409   -1.5732    0.0512 C   0  0  0  0  0  0
    2.3954   -2.6744    0.0687 N   0  0  0  0  0  0
   -1.8921    5.4530    0.0674 C   0  0  0  0  0  0
   -2.2866    6.1061    1.2431 C   0  0  0  0  0  0
   -2.7683    7.4128    1.2155 C   0  0  0  0  0  0
   -2.8859    8.0930   -0.0006 C   0  0  0  0  0  0
   -3.3971    9.5217    0.0170 C   0  0  0  0  0  0
   -3.4908   10.2291    1.0192 O   0  0  0  0  0  0
   -3.6712   10.0418   -1.2033 N   0  0  0  0  0  0
   -3.7215    9.2383   -2.4379 C   0  0  0  0  0  0
   -2.5115    8.2797   -2.4805 C   0  0  0  0  0  0
   -2.4531    7.4798   -1.1881 C   0  0  0  0  0  0
   -1.9809    6.1644   -1.1387 C   0  0  0  0  0  0
   -0.4812    4.1917    2.0562 H   0  0  0  0  0  0
   -2.1549    3.5036   -1.8473 H   0  0  0  0  0  0
   -1.3393    1.2087   -1.7874 H   0  0  0  0  0  0
   -0.2526   -0.5277    1.1287 H   0  0  0  0  0  0
   -0.4358   -0.6324   -0.5912 H   0  0  0  0  0  0
    2.0609    0.2704    0.9072 H   0  0  0  0  0  0
    1.7190    0.0905   -2.0617 H   0  0  0  0  0  0
    1.0635    1.7651   -3.5496 H   0  0  0  0  0  0
    1.1621    3.3330   -2.7943 H   0  0  0  0  0  0
    1.5853    2.6851   -5.5808 H   0  0  0  0  0  0
    1.6318    4.2596   -4.8460 H   0  0  0  0  0  0
    3.8232    3.7753   -5.9883 H   0  0  0  0  0  0
    3.7512    1.2660   -5.7418 H   0  0  0  0  0  0
    5.2474    1.8905   -5.1166 H   0  0  0  0  0  0
    3.3297    0.2794   -3.7184 H   0  0  0  0  0  0
    4.8004    0.9497   -3.0647 H   0  0  0  0  0  0
    5.3085    4.1865   -3.9075 H   0  0  0  0  0  0
    3.8230    5.1543   -3.7949 H   0  0  0  0  0  0
    4.7450    3.2344   -2.0252 H   0  0  0  0  0  0
   -2.2375    5.5999    2.1958 H   0  0  0  0  0  0
   -3.0663    7.8774    2.1450 H   0  0  0  0  0  0
   -3.8870   11.0265   -1.2606 H   0  0  0  0  0  0
   -4.6614    8.6886   -2.5130 H   0  0  0  0  0  0
   -3.7046    9.9003   -3.3041 H   0  0  0  0  0  0
   -2.5730    7.6281   -3.3531 H   0  0  0  0  0  0
   -1.5920    8.8552   -2.5983 H   0  0  0  0  0  0
   -1.6562    5.7025   -2.0595 H   0  0  0  0  0  0
    3.3833    4.1270   -1.9191 H   0  0  0  0  0  0
  1  2  1  0  0  0
  2  3  2  0  0  0
  2  7  1  0  0  0
  3  4  1  0  0  0
  3 34  1  0  0  0
  4  5  2  0  0  0
  4 23  1  0  0  0
  5  6  1  0  0  0
  5 35  1  0  0  0
  6  7  2  0  0  0
  6 36  1  0  0  0
  7  8  1  0  0  0
  8  9  1  0  0  0
  8 37  1  0  0  0
  8 38  1  0  0  0
  9 10  1  0  0  0
  9 21  1  0  0  0
  9 39  1  0  0  0
 10 11  1  0  0  0
 10 40  1  0  0  0
 11 12  2  0  0  0
 11 13  1  0  0  0
 13 14  1  0  0  0
 13 18  1  0  0  0
 13 20  1  0  0  0
 14 15  1  0  0  0
 14 41  1  0  0  0
 14 42  1  0  0  0
 15 16  1  0  0  0
 15 43  1  0  0  0
 15 44  1  0  0  0
 16 17  1  0  0  0
 16 19  1  0  0  0
 16 45  1  0  0  0
 17 18  1  0  0  0
 17 46  1  0  0  0
 17 47  1  0  0  0
 18 48  1  0  0  0
 18 49  1  0  0  0
 19 20  1  0  0  0
 19 50  1  0  0  0
 19 51  1  0  0  0
 20 52  1  0  0  0
 20 61  1  0  0  0
 21 22  3  0  0  0
 23 24  2  0  0  0
 23 33  1  0  0  0
 24 25  1  0  0  0
 24 53  1  0  0  0
 25 26  2  0  0  0
 25 54  1  0  0  0
 26 27  1  0  0  0
 26 32  1  0  0  0
 27 28  2  0  0  0
 27 29  1  0  0  0
 29 30  1  0  0  0
 29 55  1  0  0  0
 30 31  1  0  0  0
 30 56  1  0  0  0
 30 57  1  0  0  0
 31 32  1  0  0  0
 31 58  1  0  0  0
 31 59  1  0  0  0
 32 33  2  0  0  0
 33 60  1  0  0  0
M  CHG  1  20   1
M  END
> <chembl_id>
CHEMBL3702586

> <chembl_pref_name>
None

> <i_m_ct_stereo_status>
1

> <s_m_source_file>
sdf/inactives_sanitized.sdf

> <i_m_source_file_index>
618

> <i_lp_mmshare_version>
49012

> <i_f3d_flags>
0

> <s_epik_input>
Tz1DMVtOSF1bQ0gyXVtDSDJdYyhjMTIpW2NIXWMoW2NIXVtjSF0yKS1jKFtjSF1jM0YpW2NIXVtjSF1jM1tDSDJdW0NAQEhdKEMjTilbTkhdQyg9TylbQ0BdNDVbQ0gyXVtDSDJdW0NASF0oW0NIMl1bQ0gyXTQpW0NIMl1bTkhdNQ==

> <s_epik_cmdline>
J2VwaWtfcHl0aG9uJywgJy1waHQnLCAnMC41JywgJy1waCcsICc3LjUnLCAnLW50JywgJy1tYScsICcyMDAnLCAnLWltYWUnLCAnPGluZmlsZS5tYWU+JywgJy1vbWFlJywgJzxvdXRmaWxlLm1hZT4n

> <r_epik_Ionization_Penalty>
  0.2492

> <r_epik_Ionization_Penalty_Charging>
  0.2491

> <r_epik_Ionization_Penalty_Neutral>
  0.0001

> <r_epik_State_Penalty>
  0.2404

> <r_epik_Charging_Adjusted_Penalty>
0.489493738808436

> <i_epik_Tot_Q>
1

> <i_epik_Tot_abs_Q>
1

> <s_lp_Force_Field>
OPLS3e

> <r_lp_Energy>
58.685306

> <b_lp_Chiralities_Consistent>
1

> <s_lp_Variant>
sdf/inactives_sanitized.sdf:618-1

$$$$
sdf/inactives_sanitized.sdf:618
                    3D
 Schrodinger Suite 2020-1.
 60 64  0  0  1  0            999 V2000
    0.4225    1.7734    2.3039 F   0  0  0  0  0  0
   -0.2540    2.2271    1.2235 C   0  0  0  0  0  0
   -0.7034    3.5473    1.2011 C   0  0  0  0  0  0
   -1.4123    4.0545    0.1021 C   0  0  0  0  0  0
   -1.6532    3.1954   -0.9799 C   0  0  0  0  0  0
   -1.2036    1.8759   -0.9654 C   0  0  0  0  0  0
   -0.5015    1.3829    0.1368 C   0  0  0  0  0  0
    0.0059   -0.0559    0.1388 C   0  0  0  0  0  0
    1.5380   -0.1799   -0.0182 C   0  0  2  0  0  0
    2.0325    0.4726   -1.2339 N   0  0  0  0  0  0
    2.6703    1.6603   -1.2864 C   0  0  0  0  0  0
    2.9632    2.2892   -0.2678 O   0  0  0  0  0  0
    3.0504    2.2269   -2.6851 C   0  0  2  0  0  0
    4.3725    1.5577   -3.1768 C   0  0  0  0  0  0
    4.7453    2.0780   -4.5939 C   0  0  0  0  0  0
    3.6811    3.0909   -5.0967 C   0  0  2  0  0  0
    3.6009    4.2828   -4.1019 C   0  0  0  0  0  0
    3.2380    3.7789   -2.6751 C   0  0  0  0  0  0
    2.3083    2.3564   -5.0280 C   0  0  0  0  0  0
    1.9750    1.9195   -3.6562 N   0  0  2  0  0  0
    1.9782   -1.5844    0.0072 C   0  0  0  0  0  0
    2.3236   -2.6889    0.0271 N   0  0  0  0  0  0
   -1.9028    5.4652    0.0863 C   0  0  0  0  0  0
   -3.1231    5.7956   -0.5176 C   0  0  0  0  0  0
   -3.5863    7.1091   -0.5320 C   0  0  0  0  0  0
   -2.8224    8.1302    0.0428 C   0  0  0  0  0  0
   -3.3772    9.5425    0.0296 C   0  0  0  0  0  0
   -4.5434    9.8441   -0.2207 O   0  0  0  0  0  0
   -2.5025   10.4997    0.4219 N   0  0  0  0  0  0
   -1.0601   10.2581    0.6045 C   0  0  0  0  0  0
   -0.8504    8.9392    1.3795 C   0  0  0  0  0  0
   -1.6151    7.8192    0.6911 C   0  0  0  0  0  0
   -1.1648    6.4954    0.6867 C   0  0  0  0  0  0
   -0.5049    4.1732    2.0589 H   0  0  0  0  0  0
   -2.1849    3.5498   -1.8508 H   0  0  0  0  0  0
   -1.3971    1.2415   -1.8184 H   0  0  0  0  0  0
   -0.3142   -0.5374    1.0641 H   0  0  0  0  0  0
   -0.4854   -0.6159   -0.6592 H   0  0  0  0  0  0
    2.0096    0.2547    0.8651 H   0  0  0  0  0  0
    1.7472    0.0555   -2.1081 H   0  0  0  0  0  0
    5.1890    1.7692   -2.4835 H   0  0  0  0  0  0
    4.2741    0.4703   -3.2028 H   0  0  0  0  0  0
    5.7285    2.5503   -4.5735 H   0  0  0  0  0  0
    4.8294    1.2438   -5.2921 H   0  0  0  0  0  0
    3.9008    3.4293   -6.1101 H   0  0  0  0  0  0
    4.5522    4.8168   -4.0819 H   0  0  0  0  0  0
    2.8595    5.0058   -4.4450 H   0  0  0  0  0  0
    4.0294    4.0655   -1.9798 H   0  0  0  0  0  0
    2.3324    4.2778   -2.3238 H   0  0  0  0  0  0
    1.5131    3.0116   -5.3853 H   0  0  0  0  0  0
    2.3100    1.4844   -5.6832 H   0  0  0  0  0  0
    1.1468    2.4247   -3.3743 H   0  0  0  0  0  0
   -3.7336    5.0294   -0.9726 H   0  0  0  0  0  0
   -4.5348    7.3217   -1.0051 H   0  0  0  0  0  0
   -2.8548   11.4362    0.5570 H   0  0  0  0  0  0
   -0.5404   10.2367   -0.3550 H   0  0  0  0  0  0
   -0.6180   11.0894    1.1548 H   0  0  0  0  0  0
    0.2128    8.7090    1.4595 H   0  0  0  0  0  0
   -1.2112    9.0536    2.4028 H   0  0  0  0  0  0
   -0.2238    6.2710    1.1678 H   0  0  0  0  0  0
  1  2  1  0  0  0
  2  3  2  0  0  0
  2  7  1  0  0  0
  3  4  1  0  0  0
  3 34  1  0  0  0
  4  5  2  0  0  0
  4 23  1  0  0  0
  5  6  1  0  0  0
  5 35  1  0  0  0
  6  7  2  0  0  0
  6 36  1  0  0  0
  7  8  1  0  0  0
  8  9  1  0  0  0
  8 37  1  0  0  0
  8 38  1  0  0  0
  9 10  1  0  0  0
  9 21  1  0  0  0
  9 39  1  0  0  0
 10 11  1  0  0  0
 10 40  1  0  0  0
 11 12  2  0  0  0
 11 13  1  0  0  0
 13 14  1  0  0  0
 13 18  1  0  0  0
 13 20  1  0  0  0
 14 15  1  0  0  0
 14 41  1  0  0  0
 14 42  1  0  0  0
 15 16  1  0  0  0
 15 43  1  0  0  0
 15 44  1  0  0  0
 16 17  1  0  0  0
 16 19  1  0  0  0
 16 45  1  0  0  0
 17 18  1  0  0  0
 17 46  1  0  0  0
 17 47  1  0  0  0
 18 48  1  0  0  0
 18 49  1  0  0  0
 19 20  1  0  0  0
 19 50  1  0  0  0
 19 51  1  0  0  0
 20 52  1  0  0  0
 21 22  3  0  0  0
 23 24  2  0  0  0
 23 33  1  0  0  0
 24 25  1  0  0  0
 24 53  1  0  0  0
 25 26  2  0  0  0
 25 54  1  0  0  0
 26 27  1  0  0  0
 26 32  1  0  0  0
 27 28  2  0  0  0
 27 29  1  0  0  0
 29 30  1  0  0  0
 29 55  1  0  0  0
 30 31  1  0  0  0
 30 56  1  0  0  0
 30 57  1  0  0  0
 31 32  1  0  0  0
 31 58  1  0  0  0
 31 59  1  0  0  0
 32 33  2  0  0  0
 33 60  1  0  0  0
M  END
> <chembl_id>
CHEMBL3702586

> <chembl_pref_name>
None

> <i_m_ct_stereo_status>
1

> <s_m_source_file>
sdf/inactives_sanitized.sdf

> <i_m_source_file_index>
618

> <i_lp_mmshare_version>
49012

> <i_f3d_flags>
0

> <s_epik_input>
Tz1DMVtOSF1bQ0gyXVtDSDJdYyhjMTIpW2NIXWMoW2NIXVtjSF0yKS1jKFtjSF1jM0YpW2NIXVtjSF1jM1tDSDJdW0NAQEhdKEMjTilbTkhdQyg9TylbQ0BdNDVbQ0gyXVtDSDJdW0NASF0oW0NIMl1bQ0gyXTQpW0NIMl1bTkhdNQ==

> <s_epik_cmdline>
J2VwaWtfcHl0aG9uJywgJy1waHQnLCAnMC41JywgJy1waCcsICc3LjUnLCAnLW50JywgJy1tYScsICcyMDAnLCAnLWltYWUnLCAnPGluZmlsZS5tYWU+JywgJy1vbWFlJywgJzxvdXRmaWxlLm1hZT4n

> <r_epik_Ionization_Penalty>
  0.6336

> <r_epik_Ionization_Penalty_Charging>
  0.0000

> <r_epik_Ionization_Penalty_Neutral>
  0.6336

> <r_epik_State_Penalty>
  0.6506

> <r_epik_Charging_Adjusted_Penalty>
0.650608926039391

> <i_epik_Tot_Q>
0

> <i_epik_Tot_abs_Q>
0

> <s_lp_Force_Field>
OPLS3e

> <r_lp_Energy>
55.706061

> <b_lp_Chiralities_Consistent>
1

> <s_lp_Variant>
sdf/inactives_sanitized.sdf:618-2

$$$$
sdf/inactives_sanitized.sdf:619
                    3D
 Schrodinger Suite 2020-1.
 44 46  0  0  1  0            999 V2000
   -2.6136   -0.1588    0.8060 N   0  0  0  0  0  0
   -1.8859   -1.2362    0.4138 C   0  0  0  0  0  0
   -0.6192   -1.1708   -0.0841 N   0  0  0  0  0  0
   -0.0859    0.0776   -0.1893 C   0  0  0  0  0  0
   -0.7214    1.2187    0.1842 N   0  0  0  0  0  0
   -1.9764    1.0332    0.6696 C   0  0  0  0  0  0
   -2.5223   -2.4810    0.5426 N   0  0  0  0  0  0
   -2.7057    2.2209    1.0814 C   0  0  0  0  0  0
   -3.2865    3.1669    1.4095 N   0  0  0  0  0  0
    1.2171    0.2374   -0.6834 N   0  0  0  0  0  0
    2.1048   -0.6667   -1.2927 C   0  0  0  0  0  0
    3.4719   -0.4096   -1.1856 C   0  0  0  0  0  0
    4.3954   -1.2663   -1.7777 C   0  0  0  0  0  0
    3.9688   -2.3854   -2.4929 C   0  0  0  0  0  0
    2.5931   -2.6361   -2.6136 C   0  0  0  0  0  0
    1.6690   -1.7799   -2.0211 C   0  0  0  0  0  0
   -1.9626   -3.7010   -0.0418 C   0  0  0  0  0  0
   -2.3452   -3.7817   -1.5347 C   0  0  0  0  0  0
   -1.8328   -5.0858   -2.1704 C   0  0  0  0  0  0
   -2.3672   -6.2861   -1.3658 N   0  3  0  0  0  0
   -1.9892   -6.2353    0.1268 C   0  0  0  0  0  0
   -2.5018   -4.9176    0.7340 C   0  0  0  0  0  0
    4.9570   -3.1776   -3.0448 O   0  0  0  0  0  0
    4.5868   -4.3329   -3.7893 C   0  0  0  0  0  0
   -3.5149   -2.4570    0.7269 H   0  0  0  0  0  0
    1.5526    1.1889   -0.6482 H   0  0  0  0  0  0
    3.8275    0.4517   -0.6379 H   0  0  0  0  0  0
    5.4511   -1.0584   -1.6814 H   0  0  0  0  0  0
    2.2229   -3.4852   -3.1676 H   0  0  0  0  0  0
    0.6181   -1.9882   -2.1511 H   0  0  0  0  0  0
   -0.8750   -3.6744    0.0495 H   0  0  0  0  0  0
   -3.4273   -3.7128   -1.6601 H   0  0  0  0  0  0
   -1.9215   -2.9347   -2.0770 H   0  0  0  0  0  0
   -2.1871   -5.2228   -3.1926 H   0  0  0  0  0  0
   -0.7447   -5.1648   -2.1508 H   0  0  0  0  0  0
   -3.3738   -6.3157   -1.4485 H   0  0  0  0  0  0
   -2.4431   -7.1144    0.5856 H   0  0  0  0  0  0
   -0.9027   -6.3252    0.1700 H   0  0  0  0  0  0
   -2.1904   -4.8622    1.7784 H   0  0  0  0  0  0
   -3.5935   -4.9193    0.7403 H   0  0  0  0  0  0
    5.4863   -4.8364   -4.1432 H   0  0  0  0  0  0
    3.9904   -4.0702   -4.6644 H   0  0  0  0  0  0
    4.0306   -5.0435   -3.1760 H   0  0  0  0  0  0
   -2.0137   -7.1422   -1.7696 H   0  0  0  0  0  0
  1  2  2  0  0  0
  1  6  1  0  0  0
  2  3  1  0  0  0
  2  7  1  0  0  0
  3  4  2  0  0  0
  4  5  1  0  0  0
  4 10  1  0  0  0
  5  6  2  0  0  0
  6  8  1  0  0  0
  7 17  1  0  0  0
  7 25  1  0  0  0
  8  9  3  0  0  0
 10 11  1  0  0  0
 10 26  1  0  0  0
 11 12  2  0  0  0
 11 16  1  0  0  0
 12 13  1  0  0  0
 12 27  1  0  0  0
 13 14  2  0  0  0
 13 28  1  0  0  0
 14 15  1  0  0  0
 14 23  1  0  0  0
 15 16  2  0  0  0
 15 29  1  0  0  0
 16 30  1  0  0  0
 17 18  1  0  0  0
 17 22  1  0  0  0
 17 31  1  0  0  0
 18 19  1  0  0  0
 18 32  1  0  0  0
 18 33  1  0  0  0
 19 20  1  0  0  0
 19 34  1  0  0  0
 19 35  1  0  0  0
 20 21  1  0  0  0
 20 36  1  0  0  0
 20 44  1  0  0  0
 21 22  1  0  0  0
 21 37  1  0  0  0
 21 38  1  0  0  0
 22 39  1  0  0  0
 22 40  1  0  0  0
 23 24  1  0  0  0
 24 41  1  0  0  0
 24 42  1  0  0  0
 24 43  1  0  0  0
M  CHG  1  20   1
M  END
> <chembl_id>
CHEMBL4237987

> <chembl_pref_name>
None

> <s_m_source_file>
sdf/inactives_sanitized.sdf

> <i_m_source_file_index>
619

> <i_lp_mmshare_version>
49012

> <i_m_ct_stereo_status>
1

> <i_f3d_flags>
0

> <s_epik_input>
W0NIMl0xW0NIMl1bTkhdW0NIMl1bQ0gyXVtDSF0xW05IXWMybmMoQyNOKW5jKG4yKVtOSF1jM1tjSF1bY0hdYyhbY0hdW2NIXTMpT1tDSDNd

> <s_epik_cmdline>
J2VwaWtfcHl0aG9uJywgJy1waHQnLCAnMC41JywgJy1waCcsICc3LjUnLCAnLW50JywgJy1tYScsICcyMDAnLCAnLWltYWUnLCAnPGluZmlsZS5tYWU+JywgJy1vbWFlJywgJzxvdXRmaWxlLm1hZT4n

> <r_lp_tautomer_probability>
1

> <r_epik_Ionization_Penalty>
  0.0002

> <r_epik_Ionization_Penalty_Charging>
  0.0001

> <r_epik_Ionization_Penalty_Neutral>
  0.0000

> <r_epik_State_Penalty>
 -0.0000

> <r_epik_Charging_Adjusted_Penalty>
0.000134753931720609

> <i_epik_Tot_Q>
1

> <i_epik_Tot_abs_Q>
1

> <s_lp_Force_Field>
OPLS3e

> <r_lp_Energy>
30.352075

> <b_lp_Chiralities_Consistent>
1

> <s_lp_Variant>
sdf/inactives_sanitized.sdf:619-1

$$$$
sdf/inactives_sanitized.sdf:620
                    3D
 Schrodinger Suite 2020-1.
 42 44  0  0  1  0            999 V2000
   -1.8503    3.5365   -0.4437 N   0  0  0  0  0  0
   -0.4895    3.4353   -0.4087 C   0  0  0  0  0  0
    0.1759    2.2531   -0.2548 N   0  0  0  0  0  0
   -0.5961    1.1331   -0.1603 C   0  0  0  0  0  0
   -1.9536    1.1314   -0.1974 N   0  0  0  0  0  0
   -2.5160    2.3582   -0.3404 C   0  0  0  0  0  0
    0.2649    4.6130   -0.4538 N   0  0  0  0  0  0
   -0.3282    5.8940   -0.8935 C   0  0  0  0  0  0
    0.4881    7.1421   -0.5002 C   0  0  0  0  0  0
    1.8338    7.0002   -0.9239 O   0  0  0  0  0  0
    2.4552    5.8900   -0.2987 C   0  0  0  0  0  0
    1.7258    4.5862   -0.6816 C   0  0  0  0  0  0
   -3.9671    2.4165   -0.3846 C   0  0  0  0  0  0
   -5.1231    2.4632   -0.4199 N   0  0  0  0  0  0
    0.0100   -0.1224    0.0019 N   0  0  0  0  0  0
    1.4562   -0.2771    0.1633 C   0  0  0  0  0  0
    1.9339   -0.2204    1.6307 C   0  0  2  0  0  0
    3.4601   -0.1995    1.7152 C   0  0  0  0  0  0
    1.3464   -1.2795    2.3687 O   0  0  0  0  0  0
    4.1999   -1.3859    1.8012 C   0  0  0  0  0  0
    5.5904   -1.3396    1.8623 C   0  0  0  0  0  0
    6.2422   -0.1091    1.8304 C   0  0  0  0  0  0
    5.5164    1.0759    1.7354 C   0  0  0  0  0  0
    4.1262    1.0301    1.6753 C   0  0  0  0  0  0
   -0.4782    5.8624   -1.9736 H   0  0  0  0  0  0
   -1.3174    6.0099   -0.4492 H   0  0  0  0  0  0
    0.0649    8.0268   -0.9764 H   0  0  0  0  0  0
    0.4388    7.3187    0.5763 H   0  0  0  0  0  0
    3.4943    5.8430   -0.6250 H   0  0  0  0  0  0
    2.4788    6.0208    0.7852 H   0  0  0  0  0  0
    2.1725    3.7883   -0.0871 H   0  0  0  0  0  0
    1.9175    4.3352   -1.7257 H   0  0  0  0  0  0
   -0.5809   -0.9191    0.1917 H   0  0  0  0  0  0
    1.7521   -1.2198   -0.2987 H   0  0  0  0  0  0
    1.9736    0.4878   -0.4175 H   0  0  0  0  0  0
    1.5585    0.6983    2.0857 H   0  0  0  0  0  0
    1.5296   -1.1383    3.3003 H   0  0  0  0  0  0
    3.7027   -2.3449    1.8180 H   0  0  0  0  0  0
    6.1608   -2.2542    1.9310 H   0  0  0  0  0  0
    7.3207   -0.0736    1.8767 H   0  0  0  0  0  0
    6.0296    2.0258    1.7068 H   0  0  0  0  0  0
    3.5675    1.9517    1.5960 H   0  0  0  0  0  0
  1  2  2  0  0  0
  1  6  1  0  0  0
  2  3  1  0  0  0
  2  7  1  0  0  0
  3  4  2  0  0  0
  4  5  1  0  0  0
  4 15  1  0  0  0
  5  6  2  0  0  0
  6 13  1  0  0  0
  7  8  1  0  0  0
  7 12  1  0  0  0
  8  9  1  0  0  0
  8 25  1  0  0  0
  8 26  1  0  0  0
  9 10  1  0  0  0
  9 27  1  0  0  0
  9 28  1  0  0  0
 10 11  1  0  0  0
 11 12  1  0  0  0
 11 29  1  0  0  0
 11 30  1  0  0  0
 12 31  1  0  0  0
 12 32  1  0  0  0
 13 14  3  0  0  0
 15 16  1  0  0  0
 15 33  1  0  0  0
 16 17  1  0  0  0
 16 34  1  0  0  0
 16 35  1  0  0  0
 17 18  1  0  0  0
 17 19  1  0  0  0
 17 36  1  0  0  0
 18 20  2  0  0  0
 18 24  1  0  0  0
 19 37  1  0  0  0
 20 21  1  0  0  0
 20 38  1  0  0  0
 21 22  2  0  0  0
 21 39  1  0  0  0
 22 23  1  0  0  0
 22 40  1  0  0  0
 23 24  2  0  0  0
 23 41  1  0  0  0
 24 42  1  0  0  0
M  END
> <chembl_id>
CHEMBL4251370

> <chembl_pref_name>
None

> <i_m_ct_stereo_status>
1

> <s_m_source_file>
sdf/inactives_sanitized.sdf

> <i_m_source_file_index>
620

> <i_lp_mmshare_version>
49012

> <i_f3d_flags>
0

> <s_epik_input>
W0NIMl0xW0NIMl1PW0NIMl1bQ0gyXU4xYzJuYyhDI04pbmMobjIpW05IXVtDSDJdW0NAQEhdKFtPSF0pYzNbY0hdW2NIXVtjSF1bY0hdW2NIXTM=

> <s_epik_cmdline>
J2VwaWtfcHl0aG9uJywgJy1waHQnLCAnMC41JywgJy1waCcsICc3LjUnLCAnLW50JywgJy1tYScsICcyMDAnLCAnLWltYWUnLCAnPGluZmlsZS5tYWU+JywgJy1vbWFlJywgJzxvdXRmaWxlLm1hZT4n

> <r_lp_tautomer_probability>
1

> <r_epik_Ionization_Penalty>
  0.0000

> <r_epik_Ionization_Penalty_Charging>
  0.0000

> <r_epik_Ionization_Penalty_Neutral>
  0.0000

> <r_epik_State_Penalty>
 -0.0000

> <r_epik_Charging_Adjusted_Penalty>
0

> <i_epik_Tot_Q>
0

> <i_epik_Tot_abs_Q>
0

> <s_lp_Force_Field>
OPLS3e

> <r_lp_Energy>
28.972206

> <b_lp_Chiralities_Consistent>
1

> <s_lp_Variant>
sdf/inactives_sanitized.sdf:620-1

$$$$
sdf/inactives_sanitized.sdf:621
                    3D
 Schrodinger Suite 2020-1.
 57 59  0  0  1  0            999 V2000
    1.2520   -2.3091    1.7297 C   0  0  0  0  0  0
    1.7033   -3.6343    1.7960 C   0  0  0  0  0  0
    0.8499   -4.6527    1.3491 C   0  0  0  0  0  0
   -0.4134   -4.3518    0.8402 C   0  0  0  0  0  0
   -0.8379   -3.0269    0.7600 C   0  0  0  0  0  0
   -0.0031   -1.9962    1.1974 C   0  0  0  0  0  0
   -0.4441   -0.5403    1.0715 C   0  0  0  0  0  0
    0.1170    0.1554   -0.2006 C   0  0  2  0  0  0
    1.5843    0.1760   -0.2329 N   0  0  0  0  0  0
   -0.4145    1.5973   -0.3082 C   0  0  0  0  0  0
   -0.0000    2.4643    0.4634 O   0  0  0  0  0  0
   -1.3589    1.8182   -1.2377 N   0  0  0  0  0  0
   -1.9477    3.1264   -1.5065 C   0  0  0  0  0  0
   -0.9799    4.0834   -2.0714 C   0  0  0  0  0  0
   -0.2200    4.8345   -2.5153 N   0  0  0  0  0  0
    2.3679   -0.6204   -0.9835 C   0  0  0  0  0  0
    1.9417   -1.4636   -1.7743 O   0  0  0  0  0  0
    3.7808   -0.4304   -0.7524 C   0  0  0  0  0  0
    3.0821   -3.9298    2.3086 C   0  0  0  0  0  0
    4.0102   -3.0200    2.5158 N   0  0  0  0  0  0
    5.2043   -3.5527    2.9855 N   0  0  0  0  0  0
    5.1473   -4.8527    3.1217 C   0  0  0  0  0  0
    3.6181   -5.5491    2.6878 S   0  0  0  0  0  0
    4.4390    0.0636    0.3693 C   0  0  0  0  0  0
    5.8188   -0.0647    0.1473 C   0  0  0  0  0  0
    6.0245   -0.6454   -1.0179 N   0  0  0  0  0  0
    4.8154   -0.8737   -1.5517 N   0  0  0  0  0  0
    4.7525   -1.5642   -2.8359 C   0  0  0  0  0  0
    6.9814    0.3483    1.0648 C   0  0  0  0  0  0
    6.6657    1.7062    1.7365 C   0  0  0  0  0  0
    8.3144    0.5013    0.2863 C   0  0  0  0  0  0
    7.1595   -0.7268    2.1582 C   0  0  0  0  0  0
    1.8921   -1.5051    2.0643 H   0  0  0  0  0  0
    1.1594   -5.6867    1.3796 H   0  0  0  0  0  0
   -1.0585   -5.1462    0.4950 H   0  0  0  0  0  0
   -1.8107   -2.8034    0.3468 H   0  0  0  0  0  0
   -0.1400   -0.0106    1.9769 H   0  0  0  0  0  0
   -1.5352   -0.5015    1.0877 H   0  0  0  0  0  0
   -0.2542   -0.4069   -1.0612 H   0  0  0  0  0  0
    2.0197    0.8621    0.3663 H   0  0  0  0  0  0
   -1.6376    1.0605   -1.8443 H   0  0  0  0  0  0
   -2.7611    3.0084   -2.2222 H   0  0  0  0  0  0
   -2.3792    3.5531   -0.5994 H   0  0  0  0  0  0
    5.9701   -5.4572    3.4735 H   0  0  0  0  0  0
    3.9751    0.4674    1.2574 H   0  0  0  0  0  0
    4.0455   -1.0537   -3.4902 H   0  0  0  0  0  0
    4.4214   -2.5902   -2.6743 H   0  0  0  0  0  0
    5.7296   -1.5757   -3.3221 H   0  0  0  0  0  0
    7.4779    2.0326    2.3877 H   0  0  0  0  0  0
    5.7646    1.6576    2.3489 H   0  0  0  0  0  0
    6.5059    2.4901    0.9947 H   0  0  0  0  0  0
    8.2267    1.2390   -0.5128 H   0  0  0  0  0  0
    8.6223   -0.4374   -0.1767 H   0  0  0  0  0  0
    9.1288    0.8208    0.9382 H   0  0  0  0  0  0
    7.9712   -0.4781    2.8432 H   0  0  0  0  0  0
    7.3828   -1.7027    1.7244 H   0  0  0  0  0  0
    6.2532   -0.8433    2.7542 H   0  0  0  0  0  0
  1  6  2  0  0  0
  1  2  1  0  0  0
  1 33  1  0  0  0
  2 19  1  0  0  0
  2  3  2  0  0  0
  3  4  1  0  0  0
  3 34  1  0  0  0
  4  5  2  0  0  0
  4 35  1  0  0  0
  5  6  1  0  0  0
  5 36  1  0  0  0
  6  7  1  0  0  0
  7  8  1  0  0  0
  7 37  1  0  0  0
  7 38  1  0  0  0
  8  9  1  0  0  0
  8 10  1  0  0  0
  8 39  1  0  0  0
  9 16  1  0  0  0
  9 40  1  0  0  0
 10 11  2  0  0  0
 10 12  1  0  0  0
 12 13  1  0  0  0
 12 41  1  0  0  0
 13 14  1  0  0  0
 13 42  1  0  0  0
 13 43  1  0  0  0
 14 15  3  0  0  0
 16 17  2  0  0  0
 16 18  1  0  0  0
 18 24  2  0  0  0
 18 27  1  0  0  0
 19 20  2  0  0  0
 19 23  1  0  0  0
 20 21  1  0  0  0
 21 22  2  0  0  0
 22 23  1  0  0  0
 22 44  1  0  0  0
 24 25  1  0  0  0
 24 45  1  0  0  0
 25 26  2  0  0  0
 25 29  1  0  0  0
 26 27  1  0  0  0
 27 28  1  0  0  0
 28 46  1  0  0  0
 28 47  1  0  0  0
 28 48  1  0  0  0
 29 30  1  0  0  0
 29 31  1  0  0  0
 29 32  1  0  0  0
 30 49  1  0  0  0
 30 50  1  0  0  0
 30 51  1  0  0  0
 31 52  1  0  0  0
 31 53  1  0  0  0
 31 54  1  0  0  0
 32 55  1  0  0  0
 32 56  1  0  0  0
 32 57  1  0  0  0
M  END
> <chembl_id>
CHEMBL549378

> <chembl_pref_name>
None

> <i_m_ct_stereo_status>
1

> <s_m_source_file>
sdf/inactives_sanitized.sdf

> <i_m_source_file_index>
621

> <i_lp_mmshare_version>
49012

> <i_f3d_flags>
0

> <s_epik_input>
czFbY0hdbm5jMS1jMltjSF1jKFtjSF1bY0hdW2NIXTIpW0NIMl1bQ0BASF0oQyg9TylbTkhdW0NIMl1DI04pW05IXUMoPU8pYzNbY0hdYyhDKFtDSDNdKShbQ0gzXSlbQ0gzXSlubjNbQ0gzXQ==

> <s_epik_cmdline>
J2VwaWtfcHl0aG9uJywgJy1waHQnLCAnMC41JywgJy1waCcsICc3LjUnLCAnLW50JywgJy1tYScsICcyMDAnLCAnLWltYWUnLCAnPGluZmlsZS5tYWU+JywgJy1vbWFlJywgJzxvdXRmaWxlLm1hZT4n

> <r_lp_tautomer_probability>
1

> <r_epik_Ionization_Penalty>
  0.0000

> <r_epik_Ionization_Penalty_Charging>
  0.0000

> <r_epik_Ionization_Penalty_Neutral>
  0.0000

> <r_epik_State_Penalty>
 -0.0000

> <r_epik_Charging_Adjusted_Penalty>
0

> <i_epik_Tot_Q>
0

> <i_epik_Tot_abs_Q>
0

> <s_lp_Force_Field>
OPLS3e

> <r_lp_Energy>
22.717885

> <b_lp_Chiralities_Consistent>
1

> <s_lp_Variant>
sdf/inactives_sanitized.sdf:621-1

$$$$
sdf/inactives_sanitized.sdf:622
                    3D
 Schrodinger Suite 2020-1.
 43 44  0  0  1  0            999 V2000
    0.6694   -2.7893    2.5176 C   0  0  0  0  0  0
    1.1813   -4.0877    2.5450 C   0  0  0  0  0  0
    1.0136   -4.9269    1.4432 C   0  0  0  0  0  0
    0.3317   -4.4689    0.3166 C   0  0  0  0  0  0
   -0.1794   -3.1712    0.2890 C   0  0  0  0  0  0
   -0.0067   -2.3180    1.3862 C   0  0  0  0  0  0
   -0.5542   -0.8904    1.3625 C   0  0  0  0  0  0
   -0.0965   -0.0655    0.1274 C   0  0  2  0  0  0
    1.3650    0.0280    0.0336 N   0  0  0  0  0  0
   -0.6836    1.3586    0.1716 C   0  0  0  0  0  0
   -0.3264    2.1423    1.0533 O   0  0  0  0  0  0
   -1.6027    1.6571   -0.7619 N   0  0  0  0  0  0
   -2.2289    2.9682   -0.9001 C   0  0  0  0  0  0
   -1.2735    4.0220   -1.2865 C   0  0  0  0  0  0
   -0.5235    4.8492   -1.5901 N   0  0  0  0  0  0
    2.1425   -0.5671   -0.8931 C   0  0  0  0  0  0
    1.6887   -1.2800   -1.7899 O   0  0  0  0  0  0
    3.5722   -0.3174   -0.7584 C   0  0  0  0  0  0
    2.0233   -4.6542    3.9412 Cl  0  0  0  0  0  0
    4.5495   -0.7880   -1.6570 C   0  0  0  0  0  0
    6.1366   -0.3189   -1.1199 S   0  0  0  0  0  0
    5.5382    0.5135    0.2725 C   0  0  0  0  0  0
    4.1568    0.4062    0.3059 C   0  0  0  0  0  0
    6.4740    1.2067    1.2325 C   0  0  0  0  0  0
    4.4238   -1.6013   -2.9313 C   0  0  0  0  0  0
    0.8068   -2.1468    3.3754 H   0  0  0  0  0  0
    1.4090   -5.9319    1.4598 H   0  0  0  0  0  0
    0.1989   -5.1192   -0.5354 H   0  0  0  0  0  0
   -0.7066   -2.8337   -0.5909 H   0  0  0  0  0  0
   -1.6432   -0.9501    1.4053 H   0  0  0  0  0  0
   -0.2490   -0.3773    2.2773 H   0  0  0  0  0  0
   -0.4871   -0.5583   -0.7653 H   0  0  0  0  0  0
    1.8024    0.6104    0.7325 H   0  0  0  0  0  0
   -1.8297    0.9679   -1.4645 H   0  0  0  0  0  0
   -2.9975    2.9130   -1.6710 H   0  0  0  0  0  0
   -2.7249    3.2623    0.0263 H   0  0  0  0  0  0
    3.5854    0.8527    1.1072 H   0  0  0  0  0  0
    5.9374    1.6925    2.0480 H   0  0  0  0  0  0
    7.0625    1.9768    0.7331 H   0  0  0  0  0  0
    7.1762    0.5054    1.6836 H   0  0  0  0  0  0
    3.5795   -1.2857   -3.5435 H   0  0  0  0  0  0
    4.2905   -2.6613   -2.7153 H   0  0  0  0  0  0
    5.3069   -1.5128   -3.5646 H   0  0  0  0  0  0
  1  6  2  0  0  0
  1  2  1  0  0  0
  1 26  1  0  0  0
  2 19  1  0  0  0
  2  3  2  0  0  0
  3  4  1  0  0  0
  3 27  1  0  0  0
  4  5  2  0  0  0
  4 28  1  0  0  0
  5  6  1  0  0  0
  5 29  1  0  0  0
  6  7  1  0  0  0
  7  8  1  0  0  0
  7 30  1  0  0  0
  7 31  1  0  0  0
  8  9  1  0  0  0
  8 10  1  0  0  0
  8 32  1  0  0  0
  9 16  1  0  0  0
  9 33  1  0  0  0
 10 11  2  0  0  0
 10 12  1  0  0  0
 12 13  1  0  0  0
 12 34  1  0  0  0
 13 14  1  0  0  0
 13 35  1  0  0  0
 13 36  1  0  0  0
 14 15  3  0  0  0
 16 17  2  0  0  0
 16 18  1  0  0  0
 18 20  2  0  0  0
 18 23  1  0  0  0
 20 21  1  0  0  0
 20 25  1  0  0  0
 21 22  1  0  0  0
 22 23  2  0  0  0
 22 24  1  0  0  0
 23 37  1  0  0  0
 24 38  1  0  0  0
 24 39  1  0  0  0
 24 40  1  0  0  0
 25 41  1  0  0  0
 25 42  1  0  0  0
 25 43  1  0  0  0
M  END
> <chembl_id>
CHEMBL561586

> <chembl_pref_name>
None

> <i_m_ct_stereo_status>
1

> <s_m_source_file>
sdf/inactives_sanitized.sdf

> <i_m_source_file_index>
622

> <i_lp_mmshare_version>
49012

> <i_f3d_flags>
0

> <s_epik_input>
W2NIXTFbY0hdW2NIXWMoW2NIXWMxQ2wpW0NIMl1bQ0BASF0oQyg9TylbTkhdW0NIMl1DI04pW05IXUMoPU8pYzJjKFtDSDNdKXNjKFtjSF0yKVtDSDNd

> <s_epik_cmdline>
J2VwaWtfcHl0aG9uJywgJy1waHQnLCAnMC41JywgJy1waCcsICc3LjUnLCAnLW50JywgJy1tYScsICcyMDAnLCAnLWltYWUnLCAnPGluZmlsZS5tYWU+JywgJy1vbWFlJywgJzxvdXRmaWxlLm1hZT4n

> <r_lp_tautomer_probability>
1

> <r_epik_Ionization_Penalty>
  0.0000

> <r_epik_Ionization_Penalty_Charging>
  0.0000

> <r_epik_Ionization_Penalty_Neutral>
  0.0000

> <r_epik_State_Penalty>
 -0.0000

> <r_epik_Charging_Adjusted_Penalty>
0

> <i_epik_Tot_Q>
0

> <i_epik_Tot_abs_Q>
0

> <s_lp_Force_Field>
OPLS3e

> <r_lp_Energy>
20.189375

> <b_lp_Chiralities_Consistent>
1

> <s_lp_Variant>
sdf/inactives_sanitized.sdf:622-1

$$$$
sdf/inactives_sanitized.sdf:623
                    3D
 Schrodinger Suite 2020-1.
 49 52  0  0  1  0            999 V2000
   -0.0807   -0.2694   -0.1736 N   0  0  0  0  0  0
   -0.8506    0.8834   -0.1788 C   0  0  0  0  0  0
    1.3581   -0.3919   -0.3191 C   0  0  2  0  0  0
   -2.1795    0.4497    0.0555 C   0  0  0  0  0  0
    1.9585    0.0762    0.8483 O   0  0  0  0  0  0
    1.9838    0.3983   -1.4861 C   0  0  1  0  0  0
   -2.2279   -0.9080    0.2220 N   0  0  0  0  0  0
   -3.1767    1.4436    0.0819 C   0  0  0  0  0  0
   -0.9791   -1.2834    0.1019 C   0  0  0  0  0  0
    2.8549    1.4323   -0.7517 C   0  0  1  0  0  0
   -0.4782    2.1564   -0.3586 N   0  0  0  0  0  0
   -2.8324    2.7498   -0.1054 N   0  0  0  0  0  0
    3.1678    0.6702    0.5259 C   0  0  1  0  0  0
   -1.5181    3.0365   -0.3114 C   0  0  0  0  0  0
   -4.5179    1.0846    0.3070 N   0  0  0  0  0  0
    2.7027   -0.4971   -2.3211 O   0  0  0  0  0  0
    4.0436    1.8305   -1.4166 O   0  0  0  0  0  0
    3.6071    1.5621    1.4723 O   0  0  0  0  0  0
   -5.6210    2.0310    0.1378 C   0  0  0  0  0  0
   -1.1821    4.5082   -0.5267 C   0  0  0  0  0  0
   -0.2812    4.7416   -1.5938 O   0  0  0  0  0  0
   -6.7990    1.5909    1.0345 C   0  0  0  0  0  0
   -6.0347    2.0690   -1.3524 C   0  0  0  0  0  0
   -8.0312    2.4937    0.8250 C   0  0  0  0  0  0
   -7.2652    2.9720   -1.5704 C   0  0  0  0  0  0
   -8.4436    2.5701   -0.6594 C   0  0  0  0  0  0
    1.5602   -1.4633   -0.3995 H   0  0  0  0  0  0
    1.2169    0.8960   -2.0812 H   0  0  0  0  0  0
   -0.6224   -2.2993    0.1908 H   0  0  0  0  0  0
    2.2533    2.3086   -0.4985 H   0  0  0  0  0  0
    3.9202   -0.1039    0.3529 H   0  0  0  0  0  0
   -4.7397    0.0993    0.3005 H   0  0  0  0  0  0
    2.9430   -0.0336   -3.1272 H   0  0  0  0  0  0
    4.5283    1.0416   -1.6707 H   0  0  0  0  0  0
    4.4877    1.8509    1.2211 H   0  0  0  0  0  0
   -5.2891    3.0280    0.4326 H   0  0  0  0  0  0
   -2.0893    5.0838   -0.7184 H   0  0  0  0  0  0
   -0.7406    4.8944    0.3925 H   0  0  0  0  0  0
   -0.1089    5.6844   -1.6471 H   0  0  0  0  0  0
   -7.0711    0.5546    0.8240 H   0  0  0  0  0  0
   -6.5031    1.6222    2.0844 H   0  0  0  0  0  0
   -5.2081    2.4331   -1.9648 H   0  0  0  0  0  0
   -6.2581    1.0617   -1.7092 H   0  0  0  0  0  0
   -8.8661    2.1281    1.4240 H   0  0  0  0  0  0
   -7.8110    3.4975    1.1917 H   0  0  0  0  0  0
   -6.9919    4.0096   -1.3731 H   0  0  0  0  0  0
   -7.5738    2.9329   -2.6157 H   0  0  0  0  0  0
   -9.2649    3.2774   -0.7804 H   0  0  0  0  0  0
   -8.8301    1.6000   -0.9763 H   0  0  0  0  0  0
  1  2  1  0  0  0
  1  3  1  0  0  0
  1  9  1  0  0  0
  2  4  2  0  0  0
  2 11  1  0  0  0
  3  5  1  0  0  0
  3  6  1  0  0  0
  3 27  1  0  0  0
  4  8  1  0  0  0
  4  7  1  0  0  0
  5 13  1  0  0  0
  6 10  1  0  0  0
  6 16  1  0  0  0
  6 28  1  0  0  0
  7  9  2  0  0  0
  8 15  1  0  0  0
  8 12  2  0  0  0
  9 29  1  0  0  0
 10 17  1  0  0  0
 10 13  1  0  0  0
 10 30  1  0  0  0
 11 14  2  0  0  0
 12 14  1  0  0  0
 13 18  1  0  0  0
 13 31  1  0  0  0
 14 20  1  0  0  0
 15 19  1  0  0  0
 15 32  1  0  0  0
 16 33  1  0  0  0
 17 34  1  0  0  0
 18 35  1  0  0  0
 19 22  1  0  0  0
 19 23  1  0  0  0
 19 36  1  0  0  0
 20 21  1  0  0  0
 20 37  1  0  0  0
 20 38  1  0  0  0
 21 39  1  0  0  0
 22 24  1  0  0  0
 22 40  1  0  0  0
 22 41  1  0  0  0
 23 25  1  0  0  0
 23 42  1  0  0  0
 23 43  1  0  0  0
 24 26  1  0  0  0
 24 44  1  0  0  0
 24 45  1  0  0  0
 25 26  1  0  0  0
 25 46  1  0  0  0
 25 47  1  0  0  0
 26 48  1  0  0  0
 26 49  1  0  0  0
M  END
> <chembl_id>
CHEMBL190947

> <chembl_pref_name>
None

> <i_m_ct_stereo_status>
1

> <s_m_source_file>
sdf/inactives_sanitized.sdf

> <i_m_source_file_index>
623

> <i_lp_mmshare_version>
49012

> <i_f3d_flags>
0

> <s_epik_input>
W09IXVtDQEBIXTFbQ0BIXShbT0hdKVtDQEBIXShbT0hdKU9bQ0BIXTFuMltjSF1uYyhjMjMpYyhuYyhuMylbQ0gyXVtPSF0pW05IXVtDSF00W0NIMl1bQ0gyXVtDSDJdW0NIMl1bQ0gyXTQ=

> <s_epik_cmdline>
J2VwaWtfcHl0aG9uJywgJy1waHQnLCAnMC41JywgJy1waCcsICc3LjUnLCAnLW50JywgJy1tYScsICcyMDAnLCAnLWltYWUnLCAnPGluZmlsZS5tYWU+JywgJy1vbWFlJywgJzxvdXRmaWxlLm1hZT4n

> <r_lp_tautomer_probability>
1

> <r_epik_Ionization_Penalty>
  0.0003

> <r_epik_Ionization_Penalty_Charging>
  0.0000

> <r_epik_Ionization_Penalty_Neutral>
  0.0003

> <r_epik_State_Penalty>
 -0.0000

> <r_epik_Charging_Adjusted_Penalty>
0

> <i_epik_Tot_Q>
0

> <i_epik_Tot_abs_Q>
0

> <s_epik_Chemistry_Notes>
This compound contains an acetal/aminal-like group ( X-CH(R)-Y where X, Y are N, S, or O) that may be acid/base labile, releasing an aldehyde.

> <s_lp_Force_Field>
OPLS3e

> <r_lp_Energy>
40.024501

> <b_lp_Chiralities_Consistent>
1

> <s_lp_Variant>
sdf/inactives_sanitized.sdf:623-1

$$$$
sdf/inactives_sanitized.sdf:624
                    3D
 Schrodinger Suite 2020-1.
 40 41  0  0  1  0            999 V2000
   -4.3983    0.4910    2.4982 C   0  0  0  0  0  0
   -4.3426    0.1712    1.1409 C   0  0  0  0  0  0
   -3.2352    0.5282    0.3696 C   0  0  0  0  0  0
   -2.1650    1.2096    0.9706 C   0  0  0  0  0  0
   -2.2284    1.5425    2.3242 C   0  0  0  0  0  0
   -3.3360    1.1829    3.0928 C   0  0  0  0  0  0
   -0.7257    1.6877    0.0577 S   0  0  0  0  0  0
    0.0658    0.1400   -0.4773 C   0  0  0  0  0  0
    1.5814    0.0037   -0.1635 C   0  0  1  0  0  0
    1.8964   -0.7689    1.1627 C   0  0  1  0  0  0
    3.4253   -0.8877    1.4134 C   0  0  0  0  0  0
    4.1315   -1.5515    0.2143 C   0  0  0  0  0  0
    3.8276   -0.8230   -1.1078 C   0  0  0  0  0  0
    2.3111   -0.6976   -1.3378 C   0  0  0  0  0  0
    1.2784   -0.0944    2.4099 C   0  0  0  0  0  0
    1.4731    1.1011    2.6349 O   0  0  0  0  0  0
    0.5488   -0.8779    3.2236 N   0  0  0  0  0  0
   -0.0217   -0.4468    4.4967 C   0  0  0  0  0  0
    1.0062   -0.2263    5.5284 C   0  0  0  0  0  0
    1.8138   -0.0541    6.3390 N   0  0  0  0  0  0
   -3.2370    0.1152   -1.3115 Cl  0  0  0  0  0  0
   -5.7909    0.0225    3.4108 Cl  0  0  0  0  0  0
   -3.3625    1.6045    4.7701 Cl  0  0  0  0  0  0
   -5.1666   -0.3561    0.6819 H   0  0  0  0  0  0
   -1.4096    2.0781    2.7834 H   0  0  0  0  0  0
   -0.4789   -0.6999   -0.0446 H   0  0  0  0  0  0
   -0.1152    0.0698   -1.5506 H   0  0  0  0  0  0
    2.0091    1.0054   -0.0805 H   0  0  0  0  0  0
    1.4622   -1.7697    1.1028 H   0  0  0  0  0  0
    3.8846    0.0980    1.5178 H   0  0  0  0  0  0
    3.6396   -1.5147    2.2813 H   0  0  0  0  0  0
    5.2088   -1.5739    0.3843 H   0  0  0  0  0  0
    3.8160   -2.5932    0.1359 H   0  0  0  0  0  0
    4.2800    0.1699   -1.0934 H   0  0  0  0  0  0
    4.2875   -1.3570   -1.9402 H   0  0  0  0  0  0
    1.8783   -1.6864   -1.4997 H   0  0  0  0  0  0
    2.1261   -0.1569   -2.2674 H   0  0  0  0  0  0
    0.4546   -1.8572    2.9975 H   0  0  0  0  0  0
   -0.5951    0.4725    4.3824 H   0  0  0  0  0  0
   -0.7101   -1.2109    4.8579 H   0  0  0  0  0  0
  1  6  2  0  0  0
  1  2  1  0  0  0
  1 22  1  0  0  0
  2  3  2  0  0  0
  2 24  1  0  0  0
  3  4  1  0  0  0
  3 21  1  0  0  0
  4  7  1  0  0  0
  4  5  2  0  0  0
  5  6  1  0  0  0
  5 25  1  0  0  0
  6 23  1  0  0  0
  7  8  1  0  0  0
  8  9  1  0  0  0
  8 26  1  0  0  0
  8 27  1  0  0  0
  9 14  1  0  0  0
  9 10  1  0  0  0
  9 28  1  0  0  0
 10 11  1  0  0  0
 10 15  1  0  0  0
 10 29  1  0  0  0
 11 12  1  0  0  0
 11 30  1  0  0  0
 11 31  1  0  0  0
 12 13  1  0  0  0
 12 32  1  0  0  0
 12 33  1  0  0  0
 13 14  1  0  0  0
 13 34  1  0  0  0
 13 35  1  0  0  0
 14 36  1  0  0  0
 14 37  1  0  0  0
 15 16  2  0  0  0
 15 17  1  0  0  0
 17 18  1  0  0  0
 17 38  1  0  0  0
 18 19  1  0  0  0
 18 39  1  0  0  0
 18 40  1  0  0  0
 19 20  3  0  0  0
M  END
> <chembl_id>
CHEMBL202004

> <chembl_pref_name>
None

> <i_m_ct_stereo_status>
1

> <s_m_source_file>
sdf/inactives_sanitized.sdf

> <i_m_source_file_index>
624

> <i_lp_mmshare_version>
49012

> <i_f3d_flags>
0

> <s_epik_input>
Q2xjMVtjSF1jKENsKWMoW2NIXWMxQ2wpU1tDSDJdW0NASF0yW0NAQEhdKFtDSDJdW0NIMl1bQ0gyXVtDSDJdMilDKD1PKVtOSF1bQ0gyXUMjTg==

> <s_epik_cmdline>
J2VwaWtfcHl0aG9uJywgJy1waHQnLCAnMC41JywgJy1waCcsICc3LjUnLCAnLW50JywgJy1tYScsICcyMDAnLCAnLWltYWUnLCAnPGluZmlsZS5tYWU+JywgJy1vbWFlJywgJzxvdXRmaWxlLm1hZT4n

> <r_lp_tautomer_probability>
1

> <r_epik_Ionization_Penalty>
  0.0000

> <r_epik_Ionization_Penalty_Charging>
  0.0000

> <r_epik_Ionization_Penalty_Neutral>
  0.0000

> <r_epik_State_Penalty>
 -0.0000

> <r_epik_Charging_Adjusted_Penalty>
0

> <i_epik_Tot_Q>
0

> <i_epik_Tot_abs_Q>
0

> <s_lp_Force_Field>
OPLS3e

> <r_lp_Energy>
22.205957

> <b_lp_Chiralities_Consistent>
1

> <s_lp_Variant>
sdf/inactives_sanitized.sdf:624-1

$$$$
sdf/inactives_sanitized.sdf:625
                    3D
 Schrodinger Suite 2020-1.
 65 65  0  0  1  0            999 V2000
   -2.2124    5.4907    3.3829 C   0  0  0  0  0  0
   -1.5694    4.4608    2.6081 O   0  0  0  0  0  0
   -2.0924    5.2144    4.9023 C   0  0  0  0  0  0
   -3.6941    5.6662    2.9666 C   0  0  0  0  0  0
   -1.4314    6.7750    3.0362 C   0  0  0  0  0  0
   -1.9267    3.1484    2.5924 C   0  0  0  0  0  0
   -1.0992    2.4738    1.7066 N   0  0  0  0  0  0
   -2.8389    2.6491    3.2536 O   0  0  0  0  0  0
   -1.2294    1.0418    1.4224 C   0  0  2  0  0  0
    0.0281    0.6544    0.6543 C   0  0  0  0  0  0
    0.8079   -0.2761    1.0481 N   0  0  0  0  0  0
   -2.5072    0.6651    0.6197 C   0  0  0  0  0  0
   -2.8312    1.5562   -0.6045 C   0  0  0  0  0  0
   -3.9798    1.0293   -1.4844 C   0  0  0  0  0  0
   -5.3341    0.9207   -0.7678 C   0  0  0  0  0  0
    1.8717   -0.6084    0.2491 N   0  0  0  0  0  0
    2.3348   -1.8742    0.3589 C   0  0  0  0  0  0
    3.2271   -2.1420    1.1686 O   0  0  0  0  0  0
    1.8142   -2.7966   -0.5021 N   0  0  0  0  0  0
    0.5871   -2.6180   -1.3018 C   0  0  0  0  0  0
   -0.6868   -3.0530   -0.5404 C   0  0  0  0  0  0
   -2.0073   -2.8854   -1.2930 C   0  0  0  0  0  0
   -3.1988   -3.0242   -0.5741 C   0  0  0  0  0  0
   -4.4274   -2.8922   -1.2154 C   0  0  0  0  0  0
   -4.4662   -2.6280   -2.5819 C   0  0  0  0  0  0
   -3.2872   -2.4896   -3.3103 C   0  0  0  0  0  0
   -2.0582   -2.6166   -2.6676 C   0  0  0  0  0  0
    2.6873    0.4009   -0.4611 C   0  0  0  0  0  0
    2.3528   -4.1609   -0.5623 C   0  0  0  0  0  0
   -2.4556    6.0591    5.4889 H   0  0  0  0  0  0
   -1.0556    5.0367    5.1909 H   0  0  0  0  0  0
   -2.6666    4.3408    5.2104 H   0  0  0  0  0  0
   -4.3025    4.8015    3.2313 H   0  0  0  0  0  0
   -3.7879    5.8080    1.8891 H   0  0  0  0  0  0
   -4.1428    6.5340    3.4516 H   0  0  0  0  0  0
   -1.8291    7.6421    3.5652 H   0  0  0  0  0  0
   -1.4759    6.9940    1.9683 H   0  0  0  0  0  0
   -0.3766    6.6857    3.3005 H   0  0  0  0  0  0
   -0.3895    2.9982    1.2162 H   0  0  0  0  0  0
   -1.2502    0.5054    2.3750 H   0  0  0  0  0  0
    0.1691    1.2174   -0.2657 H   0  0  0  0  0  0
   -2.4394   -0.3756    0.2997 H   0  0  0  0  0  0
   -3.3571    0.6915    1.3028 H   0  0  0  0  0  0
   -3.0700    2.5671   -0.2710 H   0  0  0  0  0  0
   -1.9451    1.6517   -1.2322 H   0  0  0  0  0  0
   -3.7055    0.0560   -1.8896 H   0  0  0  0  0  0
   -4.0916    1.6877   -2.3467 H   0  0  0  0  0  0
   -6.1142    0.6079   -1.4623 H   0  0  0  0  0  0
   -5.6345    1.8780   -0.3410 H   0  0  0  0  0  0
   -5.3041    0.1865    0.0375 H   0  0  0  0  0  0
    0.4969   -1.5722   -1.5978 H   0  0  0  0  0  0
    0.6995   -3.2222   -2.2031 H   0  0  0  0  0  0
   -0.6093   -4.1050   -0.2636 H   0  0  0  0  0  0
   -0.7632   -2.4802    0.3847 H   0  0  0  0  0  0
   -3.1740   -3.2318    0.4860 H   0  0  0  0  0  0
   -5.3453   -2.9947   -0.6557 H   0  0  0  0  0  0
   -5.4191   -2.5262   -3.0802 H   0  0  0  0  0  0
   -3.3260   -2.2838   -4.3699 H   0  0  0  0  0  0
   -1.1572   -2.5088   -3.2521 H   0  0  0  0  0  0
    3.7283    0.0959   -0.5903 H   0  0  0  0  0  0
    2.7084    1.3476    0.0809 H   0  0  0  0  0  0
    2.2720    0.5870   -1.4521 H   0  0  0  0  0  0
    3.2869   -4.2804   -0.0117 H   0  0  0  0  0  0
    2.5515   -4.4392   -1.5976 H   0  0  0  0  0  0
    1.6340   -4.8722   -0.1558 H   0  0  0  0  0  0
  1  5  1  0  0  0
  1  3  1  0  0  0
  1  2  1  0  0  0
  1  4  1  0  0  0
  2  6  1  0  0  0
  3 30  1  0  0  0
  3 31  1  0  0  0
  3 32  1  0  0  0
  4 33  1  0  0  0
  4 34  1  0  0  0
  4 35  1  0  0  0
  5 36  1  0  0  0
  5 37  1  0  0  0
  5 38  1  0  0  0
  6  8  2  0  0  0
  6  7  1  0  0  0
  7  9  1  0  0  0
  7 39  1  0  0  0
  9 10  1  0  0  0
  9 12  1  0  0  0
  9 40  1  0  0  0
 10 11  2  0  0  0
 10 41  1  0  0  0
 11 16  1  0  0  0
 12 13  1  0  0  0
 12 42  1  0  0  0
 12 43  1  0  0  0
 13 14  1  0  0  0
 13 44  1  0  0  0
 13 45  1  0  0  0
 14 15  1  0  0  0
 14 46  1  0  0  0
 14 47  1  0  0  0
 15 48  1  0  0  0
 15 49  1  0  0  0
 15 50  1  0  0  0
 16 17  1  0  0  0
 16 28  1  0  0  0
 17 18  2  0  0  0
 17 19  1  0  0  0
 19 20  1  0  0  0
 19 29  1  0  0  0
 20 21  1  0  0  0
 20 51  1  0  0  0
 20 52  1  0  0  0
 21 22  1  0  0  0
 21 53  1  0  0  0
 21 54  1  0  0  0
 22 23  2  0  0  0
 22 27  1  0  0  0
 23 24  1  0  0  0
 23 55  1  0  0  0
 24 25  2  0  0  0
 24 56  1  0  0  0
 25 26  1  0  0  0
 25 57  1  0  0  0
 26 27  2  0  0  0
 26 58  1  0  0  0
 27 59  1  0  0  0
 28 60  1  0  0  0
 28 61  1  0  0  0
 28 62  1  0  0  0
 29 63  1  0  0  0
 29 64  1  0  0  0
 29 65  1  0  0  0
M  END
> <chembl_id>
CHEMBL383406

> <chembl_pref_name>
None

> <i_m_ct_stereo_status>
1

> <s_m_source_file>
sdf/inactives_sanitized.sdf

> <i_m_source_file_index>
625

> <i_lp_mmshare_version>
49012

> <i_f3d_flags>
0

> <s_epik_input>
W0NIM11DKFtDSDNdKShbQ0gzXSlPQyg9TylbTkhdW0NAQEhdKFtDSDJdW0NIMl1bQ0gyXVtDSDNdKS9bQ0hdPU4vTihbQ0gzXSlDKD1PKU4oW0NIM10pW0NIMl1bQ0gyXWMxW2NIXVtjSF1bY0hdW2NIXVtjSF0x

> <s_epik_cmdline>
J2VwaWtfcHl0aG9uJywgJy1waHQnLCAnMC41JywgJy1waCcsICc3LjUnLCAnLW50JywgJy1tYScsICcyMDAnLCAnLWltYWUnLCAnPGluZmlsZS5tYWU+JywgJy1vbWFlJywgJzxvdXRmaWxlLm1hZT4n

> <r_lp_tautomer_probability>
1

> <r_epik_Ionization_Penalty>
  0.0000

> <r_epik_Ionization_Penalty_Charging>
  0.0000

> <r_epik_Ionization_Penalty_Neutral>
  0.0000

> <r_epik_State_Penalty>
 -0.0000

> <r_epik_Charging_Adjusted_Penalty>
0

> <i_epik_Tot_Q>
0

> <i_epik_Tot_abs_Q>
0

> <s_epik_Chemistry_Notes>
This compound has an ester and may undergo hydrolysis at high or low pH. This compound has an imine and may undergo hydrolysis.

> <s_lp_Force_Field>
OPLS3e

> <r_lp_Energy>
37.237459

> <b_lp_Chiralities_Consistent>
1

> <s_lp_Variant>
sdf/inactives_sanitized.sdf:625-1

$$$$
sdf/inactives_sanitized.sdf:626
                    3D
 Schrodinger Suite 2020-1.
 33 33  0  0  1  0            999 V2000
    0.1217    0.2444   -0.1130 C   0  0  0  0  0  0
    2.0761   -0.6747    1.1606 N   0  0  1  0  0  0
    1.4661   -0.4729    2.3490 C   0  0  0  0  0  0
    1.6592    0.1228   -0.0172 C   0  0  1  0  0  0
    0.9106   -0.3433    3.3563 N   0  0  0  0  0  0
   -0.5283   -0.9504    0.0344 O   0  0  0  0  0  0
   -0.4052    1.3377   -0.3193 O   0  0  0  0  0  0
   -1.9566   -1.1231    0.0417 C   0  0  0  0  0  0
    3.5318   -0.8397    1.2709 C   0  0  0  0  0  0
    2.1977   -0.5211   -1.3232 C   0  0  0  0  0  0
   -2.5859   -0.7059   -1.3104 C   0  0  0  0  0  0
   -2.6045   -0.3515    1.2182 C   0  0  0  0  0  0
   -2.1580   -2.6375    0.2537 C   0  0  0  0  0  0
    4.1157   -1.4816   -0.0049 C   0  0  0  0  0  0
    3.7173   -0.7196   -1.2755 C   0  0  0  0  0  0
    2.0701    1.1277    0.0918 H   0  0  0  0  0  0
    3.9358    0.1665    1.3967 H   0  0  0  0  0  0
    3.7870   -1.4322    2.1510 H   0  0  0  0  0  0
    1.7235   -1.4896   -1.4980 H   0  0  0  0  0  0
    1.9459    0.0998   -2.1850 H   0  0  0  0  0  0
   -3.6449   -0.9642   -1.3513 H   0  0  0  0  0  0
   -2.0948   -1.2060   -2.1461 H   0  0  0  0  0  0
   -2.5114    0.3668   -1.4880 H   0  0  0  0  0  0
   -2.5297    0.7288    1.0936 H   0  0  0  0  0  0
   -2.1233   -0.5996    2.1652 H   0  0  0  0  0  0
   -3.6640   -0.5909    1.3163 H   0  0  0  0  0  0
   -3.2160   -2.9012    0.2856 H   0  0  0  0  0  0
   -1.7086   -2.9732    1.1896 H   0  0  0  0  0  0
   -1.6996   -3.2184   -0.5481 H   0  0  0  0  0  0
    3.7659   -2.5127   -0.0788 H   0  0  0  0  0  0
    5.2018   -1.5407    0.0744 H   0  0  0  0  0  0
    4.2139    0.2519   -1.2904 H   0  0  0  0  0  0
    4.0593   -1.2549   -2.1623 H   0  0  0  0  0  0
  1  4  1  0  0  0
  1  6  1  0  0  0
  1  7  2  0  0  0
  2  4  1  0  0  0
  2  3  1  0  0  0
  2  9  1  0  0  0
  3  5  3  0  0  0
  4 10  1  0  0  0
  4 16  1  0  0  0
  6  8  1  0  0  0
  8 11  1  0  0  0
  8 12  1  0  0  0
  8 13  1  0  0  0
  9 14  1  0  0  0
  9 17  1  0  0  0
  9 18  1  0  0  0
 10 15  1  0  0  0
 10 19  1  0  0  0
 10 20  1  0  0  0
 11 21  1  0  0  0
 11 22  1  0  0  0
 11 23  1  0  0  0
 12 24  1  0  0  0
 12 25  1  0  0  0
 12 26  1  0  0  0
 13 27  1  0  0  0
 13 28  1  0  0  0
 13 29  1  0  0  0
 14 15  1  0  0  0
 14 30  1  0  0  0
 14 31  1  0  0  0
 15 32  1  0  0  0
 15 33  1  0  0  0
M  END
> <chembl_id>
CHEMBL434529

> <chembl_pref_name>
None

> <i_m_ct_stereo_status>
1

> <s_m_source_file>
sdf/inactives_sanitized.sdf

> <i_m_source_file_index>
626

> <i_lp_mmshare_version>
49012

> <i_f3d_flags>
0

> <s_epik_input>
W0NIM11DKFtDSDNdKShbQ0gzXSlPQyg9TylbQ0BASF0oTjFDI04pW0NIMl1bQ0gyXVtDSDJdW0NIMl0x

> <s_epik_cmdline>
J2VwaWtfcHl0aG9uJywgJy1waHQnLCAnMC41JywgJy1waCcsICc3LjUnLCAnLW50JywgJy1tYScsICcyMDAnLCAnLWltYWUnLCAnPGluZmlsZS5tYWU+JywgJy1vbWFlJywgJzxvdXRmaWxlLm1hZT4n

> <r_lp_tautomer_probability>
1

> <r_epik_Ionization_Penalty>
  0.0000

> <r_epik_Ionization_Penalty_Charging>
  0.0000

> <r_epik_Ionization_Penalty_Neutral>
  0.0000

> <r_epik_State_Penalty>
 -0.0000

> <r_epik_Charging_Adjusted_Penalty>
0

> <i_epik_Tot_Q>
0

> <i_epik_Tot_abs_Q>
0

> <s_epik_Chemistry_Notes>
This compound has an ester and may undergo hydrolysis at high or low pH.

> <s_lp_Force_Field>
OPLS3e

> <r_lp_Energy>
14.097529

> <b_lp_Chiralities_Consistent>
1

> <s_lp_Variant>
sdf/inactives_sanitized.sdf:626-1

$$$$
sdf/inactives_sanitized.sdf:627
                    3D
 Schrodinger Suite 2020-1.
 44 45  0  0  1  0            999 V2000
    0.0916   -0.0511   -0.0237 C   0  0  2  0  0  0
   -0.5144   -0.9115   -1.1541 C   0  0  0  0  0  0
   -0.5388    1.3489   -0.0342 C   0  0  0  0  0  0
   -3.8262   -1.4416   -3.2259 N   0  0  0  0  0  0
   -0.1971    2.2911   -1.0142 C   0  0  0  0  0  0
   -0.7732    3.5725   -1.0428 C   0  0  0  0  0  0
   -3.0663   -2.0107   -2.5643 C   0  0  0  0  0  0
    0.8312    4.4206   -2.6687 N   0  0  0  0  0  0
   -0.3966    4.5737   -2.0928 C   0  0  0  0  0  0
    1.6480   -0.0381   -0.0778 C   0  0  0  0  0  0
   -0.1979   -0.7127   -2.3284 O   0  0  0  0  0  0
   -1.3934   -1.8613   -0.7893 N   0  0  0  0  0  0
   -2.0997   -2.7362   -1.7211 C   0  0  0  0  0  0
   -1.4857    1.6941    0.9342 C   0  0  0  0  0  0
   -1.7140    3.8860   -0.0499 C   0  0  0  0  0  0
   -2.0685    2.9582    0.9277 C   0  0  0  0  0  0
    2.3591    0.8007    1.0164 C   0  0  0  0  0  0
    1.2178    5.2932   -3.6330 C   0  0  0  0  0  0
   -1.2594    5.6076   -2.4920 C   0  0  0  0  0  0
    3.8813    0.8267    0.7857 C   0  0  0  0  0  0
    2.0329    0.3255    2.4460 C   0  0  0  0  0  0
    0.4112    6.3435   -4.0681 C   0  0  0  0  0  0
   -0.8467    6.4974   -3.4860 C   0  0  0  0  0  0
   -0.1801   -0.5261    0.9211 H   0  0  0  0  0  0
    0.5229    2.0130   -1.7700 H   0  0  0  0  0  0
    2.0123   -1.0657   -0.0164 H   0  0  0  0  0  0
    1.9760    0.3207   -1.0554 H   0  0  0  0  0  0
   -1.6516   -1.9367    0.1837 H   0  0  0  0  0  0
   -2.6454   -3.4912   -1.1551 H   0  0  0  0  0  0
   -1.3960   -3.2655   -2.3658 H   0  0  0  0  0  0
   -1.7709    0.9857    1.6980 H   0  0  0  0  0  0
   -2.1768    4.8610   -0.0175 H   0  0  0  0  0  0
   -2.7947    3.2209    1.6828 H   0  0  0  0  0  0
    2.0134    1.8321    0.9312 H   0  0  0  0  0  0
    2.1970    5.1351   -4.0602 H   0  0  0  0  0  0
   -2.2398    5.7233   -2.0550 H   0  0  0  0  0  0
    4.3141   -0.1719    0.8596 H   0  0  0  0  0  0
    4.3824    1.4599    1.5188 H   0  0  0  0  0  0
    4.1254    1.2213   -0.2015 H   0  0  0  0  0  0
    2.3057   -0.7204    2.5911 H   0  0  0  0  0  0
    0.9719    0.4291    2.6731 H   0  0  0  0  0  0
    2.5721    0.9140    3.1893 H   0  0  0  0  0  0
    0.7505    7.0187   -4.8397 H   0  0  0  0  0  0
   -1.4994    7.2966   -3.8049 H   0  0  0  0  0  0
  1  2  1  0  0  0
  1  3  1  0  0  0
  1 10  1  0  0  0
  1 24  1  0  0  0
  2 11  2  0  0  0
  2 12  1  0  0  0
  3  5  2  0  0  0
  3 14  1  0  0  0
  4  7  3  0  0  0
  5  6  1  0  0  0
  5 25  1  0  0  0
  6  9  1  0  0  0
  6 15  2  0  0  0
  7 13  1  0  0  0
  8  9  2  0  0  0
  8 18  1  0  0  0
  9 19  1  0  0  0
 10 17  1  0  0  0
 10 26  1  0  0  0
 10 27  1  0  0  0
 12 13  1  0  0  0
 12 28  1  0  0  0
 13 29  1  0  0  0
 13 30  1  0  0  0
 14 16  2  0  0  0
 14 31  1  0  0  0
 15 16  1  0  0  0
 15 32  1  0  0  0
 16 33  1  0  0  0
 17 20  1  0  0  0
 17 21  1  0  0  0
 17 34  1  0  0  0
 18 22  2  0  0  0
 18 35  1  0  0  0
 19 23  2  0  0  0
 19 36  1  0  0  0
 20 37  1  0  0  0
 20 38  1  0  0  0
 20 39  1  0  0  0
 21 40  1  0  0  0
 21 41  1  0  0  0
 21 42  1  0  0  0
 22 23  1  0  0  0
 22 43  1  0  0  0
 23 44  1  0  0  0
M  END
> <chembl_id>
CHEMBL122424

> <chembl_pref_name>
None

> <s_m_source_file>
sdf/inactives_sanitized.sdf

> <i_m_source_file_index>
627

> <i_lp_mmshare_version>
49012

> <i_m_ct_stereo_status>
1

> <i_f3d_flags>
0

> <s_epik_input>
TiNDW0NIMl1bTkhdQyg9TylbQ0BASF0oW0NIMl1bQ0hdKFtDSDNdKVtDSDNdKWMxW2NIXWMoW2NIXVtjSF1bY0hdMSktYzJuW2NIXVtjSF1bY0hdW2NIXTI=

> <s_epik_cmdline>
J2VwaWtfcHl0aG9uJywgJy1waHQnLCAnMC41JywgJy1waCcsICc3LjUnLCAnLW50JywgJy1tYScsICcyMDAnLCAnLWltYWUnLCAnPGluZmlsZS5tYWU+JywgJy1vbWFlJywgJzxvdXRmaWxlLm1hZT4n

> <r_lp_tautomer_probability>
1

> <r_epik_Ionization_Penalty>
  0.0022

> <r_epik_Ionization_Penalty_Charging>
  0.0000

> <r_epik_Ionization_Penalty_Neutral>
  0.0022

> <r_epik_State_Penalty>
 -0.0000

> <r_epik_Charging_Adjusted_Penalty>
0

> <i_epik_Tot_Q>
0

> <i_epik_Tot_abs_Q>
0

> <s_lp_Force_Field>
OPLS3e

> <r_lp_Energy>
31.018965

> <b_lp_Chiralities_Consistent>
1

> <s_lp_Variant>
sdf/inactives_sanitized.sdf:627-1

$$$$
sdf/inactives_sanitized.sdf:628
                    3D
 Schrodinger Suite 2020-1.
 60 64  0  0  1  0            999 V2000
   -1.9309    8.1174   -3.5339 C   0  0  0  0  0  0
   -2.4546    8.3472   -2.1885 N   0  0  0  0  0  0
   -3.0341    9.5215   -1.8370 C   0  0  0  0  0  0
   -3.2005   10.5287   -2.5253 O   0  0  0  0  0  0
   -3.4656    9.3784   -0.3756 C   0  0  0  0  0  0
   -3.0356    7.9904   -0.0283 C   0  0  0  0  0  0
   -3.1397    7.2592    1.1531 C   0  0  0  0  0  0
   -2.6418    5.9549    1.1974 C   0  0  0  0  0  0
   -2.0387    5.3646    0.0723 C   0  0  0  0  0  0
   -1.9457    6.1250   -1.1058 C   0  0  0  0  0  0
   -2.4459    7.4280   -1.1412 C   0  0  0  0  0  0
   -1.5093    3.9680    0.1265 C   0  0  0  0  0  0
   -1.5735    3.1342   -0.9985 C   0  0  0  0  0  0
   -1.0714    1.8371   -0.9550 C   0  0  0  0  0  0
   -0.4914    1.3540    0.2180 C   0  0  0  0  0  0
    0.1036   -0.0481    0.2561 C   0  0  0  0  0  0
    1.6433   -0.0717    0.1267 C   0  0  2  0  0  0
    2.1205    0.5343   -1.1199 N   0  0  0  0  0  0
    2.5967    1.7868   -1.2471 C   0  0  0  0  0  0
    2.7308    2.5458   -0.2837 O   0  0  0  0  0  0
    2.9829    2.2156   -2.6867 C   0  0  1  0  0  0
    3.0548    3.6962   -2.7768 N   0  0  1  0  0  0
    4.3222    4.1675   -3.3659 C   0  0  2  0  0  0
    4.4765    3.5176   -4.7696 C   0  0  0  0  0  0
    4.4857    1.9657   -4.6518 C   0  0  0  0  0  0
    4.3161    1.5367   -3.1668 C   0  0  1  0  0  0
    5.4957    2.1415   -2.3466 C   0  0  0  0  0  0
    5.4857    3.6922   -2.4535 C   0  0  0  0  0  0
    2.1840   -1.4350    0.2512 C   0  0  0  0  0  0
    2.6088   -2.5071    0.3485 N   0  0  0  0  0  0
   -0.4260    2.1683    1.3480 C   0  0  0  0  0  0
   -0.9327    3.4639    1.3007 C   0  0  0  0  0  0
   -2.3706    7.2131   -3.9554 H   0  0  0  0  0  0
   -0.8502    7.9797   -3.4946 H   0  0  0  0  0  0
   -2.1422    8.9411   -4.2174 H   0  0  0  0  0  0
   -2.9624   10.1290    0.2349 H   0  0  0  0  0  0
   -4.5454    9.5060   -0.2925 H   0  0  0  0  0  0
   -3.6002    7.6848    2.0324 H   0  0  0  0  0  0
   -2.7397    5.3992    2.1184 H   0  0  0  0  0  0
   -1.4765    5.7061   -1.9838 H   0  0  0  0  0  0
   -2.0188    3.4847   -1.9181 H   0  0  0  0  0  0
   -1.1223    1.2159   -1.8374 H   0  0  0  0  0  0
   -0.1974   -0.5289    1.1883 H   0  0  0  0  0  0
   -0.3460   -0.6558   -0.5315 H   0  0  0  0  0  0
    2.0684    0.4525    0.9856 H   0  0  0  0  0  0
    1.9545    0.0021   -1.9614 H   0  0  0  0  0  0
    2.1478    1.8875   -3.3092 H   0  0  0  0  0  0
    2.3163    4.0107   -3.3894 H   0  0  0  0  0  0
    4.3087    5.2555   -3.4395 H   0  0  0  0  0  0
    3.6667    3.8414   -5.4254 H   0  0  0  0  0  0
    5.3987    3.8625   -5.2393 H   0  0  0  0  0  0
    3.6890    1.5366   -5.2616 H   0  0  0  0  0  0
    5.4170    1.5636   -5.0531 H   0  0  0  0  0  0
    4.2826    0.4496   -3.0767 H   0  0  0  0  0  0
    5.4398    1.8327   -1.3019 H   0  0  0  0  0  0
    6.4439    1.7489   -2.7166 H   0  0  0  0  0  0
    5.3884    4.1357   -1.4611 H   0  0  0  0  0  0
    6.4385    4.0467   -2.8488 H   0  0  0  0  0  0
    0.0305    1.8057    2.2576 H   0  0  0  0  0  0
   -0.8551    4.0815    2.1836 H   0  0  0  0  0  0
  1  2  1  0  0  0
  1 33  1  0  0  0
  1 34  1  0  0  0
  1 35  1  0  0  0
  2  3  1  0  0  0
  2 11  1  0  0  0
  3  4  2  0  0  0
  3  5  1  0  0  0
  5  6  1  0  0  0
  5 36  1  0  0  0
  5 37  1  0  0  0
  6  7  2  0  0  0
  6 11  1  0  0  0
  7  8  1  0  0  0
  7 38  1  0  0  0
  8  9  2  0  0  0
  8 39  1  0  0  0
  9 10  1  0  0  0
  9 12  1  0  0  0
 10 11  2  0  0  0
 10 40  1  0  0  0
 12 13  2  0  0  0
 12 32  1  0  0  0
 13 14  1  0  0  0
 13 41  1  0  0  0
 14 15  2  0  0  0
 14 42  1  0  0  0
 15 16  1  0  0  0
 15 31  1  0  0  0
 16 17  1  0  0  0
 16 43  1  0  0  0
 16 44  1  0  0  0
 17 18  1  0  0  0
 17 29  1  0  0  0
 17 45  1  0  0  0
 18 19  1  0  0  0
 18 46  1  0  0  0
 19 20  2  0  0  0
 19 21  1  0  0  0
 21 22  1  0  0  0
 21 26  1  0  0  0
 21 47  1  0  0  0
 22 23  1  0  0  0
 22 48  1  0  0  0
 23 24  1  0  0  0
 23 28  1  0  0  0
 23 49  1  0  0  0
 24 25  1  0  0  0
 24 50  1  0  0  0
 24 51  1  0  0  0
 25 26  1  0  0  0
 25 52  1  0  0  0
 25 53  1  0  0  0
 26 27  1  0  0  0
 26 54  1  0  0  0
 27 28  1  0  0  0
 27 55  1  0  0  0
 27 56  1  0  0  0
 28 57  1  0  0  0
 28 58  1  0  0  0
 29 30  3  0  0  0
 31 32  2  0  0  0
 31 59  1  0  0  0
 32 60  1  0  0  0
M  END
> <chembl_id>
CHEMBL3695333

> <chembl_pref_name>
None

> <i_m_ct_stereo_status>
1

> <s_m_source_file>
sdf/inactives_sanitized.sdf

> <i_m_source_file_index>
628

> <i_lp_mmshare_version>
49012

> <i_f3d_flags>
0

> <s_epik_input>
Tz1DKFtDSDJdMSlOKFtDSDNdKWMoYzEyKVtjSF1jKFtjSF1bY0hdMiktYzNbY0hdW2NIXWMoW2NIXVtjSF0zKVtDSDJdW0NAQEhdKEMjTilbTkhdQyg9TylbQ0BASF0oW05IXVtDQEhdNDUpW0NAQEhdKFtDSDJdW0NIMl00KVtDSDJdW0NIMl01

> <s_epik_cmdline>
J2VwaWtfcHl0aG9uJywgJy1waHQnLCAnMC41JywgJy1waCcsICc3LjUnLCAnLW50JywgJy1tYScsICcyMDAnLCAnLWltYWUnLCAnPGluZmlsZS5tYWU+JywgJy1vbWFlJywgJzxvdXRmaWxlLm1hZT4n

> <r_epik_Ionization_Penalty>
  0.4101

> <r_epik_Ionization_Penalty_Charging>
  0.0000

> <r_epik_Ionization_Penalty_Neutral>
  0.4101

> <r_epik_State_Penalty>
  0.4100

> <r_epik_Charging_Adjusted_Penalty>
0.410033589345069

> <i_epik_Tot_Q>
0

> <i_epik_Tot_abs_Q>
0

> <s_lp_Force_Field>
OPLS3e

> <r_lp_Energy>
35.932372

> <b_lp_Chiralities_Consistent>
1

> <s_lp_Variant>
sdf/inactives_sanitized.sdf:628-1

$$$$
sdf/inactives_sanitized.sdf:628
                    3D
 Schrodinger Suite 2020-1.
 61 65  0  0  1  0            999 V2000
    0.1758    9.0609    1.8373 C   0  0  0  0  0  0
   -1.0967    8.9500    1.1273 N   0  0  0  0  0  0
   -1.8587   10.0469    0.8974 C   0  0  0  0  0  0
   -1.6354   11.2136    1.2216 O   0  0  0  0  0  0
   -3.0958    9.5700    0.1347 C   0  0  0  0  0  0
   -2.8668    8.0998    0.0001 C   0  0  0  0  0  0
   -3.6283    7.1004   -0.6014 C   0  0  0  0  0  0
   -3.1677    5.7821   -0.5815 C   0  0  0  0  0  0
   -1.9528    5.4442    0.0396 C   0  0  0  0  0  0
   -1.2047    6.4704    0.6406 C   0  0  0  0  0  0
   -1.6689    7.7877    0.6102 C   0  0  0  0  0  0
   -1.4671    4.0322    0.0576 C   0  0  0  0  0  0
   -1.6695    3.1918   -1.0452 C   0  0  0  0  0  0
   -1.2010    1.8810   -1.0375 C   0  0  0  0  0  0
   -0.5261    1.3892    0.0801 C   0  0  0  0  0  0
    0.0281   -0.0304    0.0786 C   0  0  0  0  0  0
    1.5685   -0.0984   -0.0345 C   0  0  2  0  0  0
    2.0884    0.5549   -1.2404 N   0  0  0  0  0  0
    2.5918    1.8014   -1.2953 C   0  0  0  0  0  0
    2.6961    2.5190   -0.2968 O   0  0  0  0  0  0
    3.0372    2.2781   -2.7014 C   0  0  1  0  0  0
    3.2876    3.8113   -2.5853 N   0  3  0  0  0  0
    4.7031    4.2166   -3.0622 C   0  0  2  0  0  0
    4.8372    3.7212   -4.5248 C   0  0  0  0  0  0
    4.6566    2.1776   -4.6034 C   0  0  0  0  0  0
    4.3447    1.5730   -3.2045 C   0  0  1  0  0  0
    5.5324    1.9364   -2.2598 C   0  0  0  0  0  0
    5.7115    3.4766   -2.1480 C   0  0  0  0  0  0
    2.0625   -1.4836    0.0247 C   0  0  0  0  0  0
    2.4515   -2.5725    0.0701 N   0  0  0  0  0  0
   -0.3315    2.2091    1.1913 C   0  0  0  0  0  0
   -0.7948    3.5214    1.1762 C   0  0  0  0  0  0
    0.6740    8.0953    1.9177 H   0  0  0  0  0  0
    0.0200    9.4445    2.8464 H   0  0  0  0  0  0
    0.8481    9.7419    1.3140 H   0  0  0  0  0  0
   -3.9953    9.7938    0.7091 H   0  0  0  0  0  0
   -3.1489   10.0684   -0.8337 H   0  0  0  0  0  0
   -4.5684    7.3302   -1.0811 H   0  0  0  0  0  0
   -3.7740    5.0180   -1.0457 H   0  0  0  0  0  0
   -0.2632    6.2383    1.1157 H   0  0  0  0  0  0
   -2.1778    3.5559   -1.9261 H   0  0  0  0  0  0
   -1.3541    1.2557   -1.9051 H   0  0  0  0  0  0
   -0.2977   -0.5285    0.9933 H   0  0  0  0  0  0
   -0.4274   -0.6016   -0.7326 H   0  0  0  0  0  0
    2.0003    0.3633    0.8563 H   0  0  0  0  0  0
    1.9393    0.0605   -2.1081 H   0  0  0  0  0  0
    2.1858    2.1595   -3.3740 H   0  0  0  0  0  0
    2.6024    4.3055   -3.1389 H   0  0  0  0  0  0
    4.7621    5.3018   -2.9699 H   0  0  0  0  0  0
    4.1005    4.2179   -5.1584 H   0  0  0  0  0  0
    5.8125    4.0038   -4.9238 H   0  0  0  0  0  0
    3.8605    1.9284   -5.3071 H   0  0  0  0  0  0
    5.5594    1.7190   -5.0105 H   0  0  0  0  0  0
    4.2161    0.4914   -3.2744 H   0  0  0  0  0  0
    5.3907    1.4983   -1.2708 H   0  0  0  0  0  0
    6.4509    1.4872   -2.6411 H   0  0  0  0  0  0
    5.5777    3.7928   -1.1121 H   0  0  0  0  0  0
    6.7314    3.7554   -2.4169 H   0  0  0  0  0  0
    0.1899    1.8364    2.0611 H   0  0  0  0  0  0
   -0.6313    4.1389    2.0474 H   0  0  0  0  0  0
    3.1701    4.0919   -1.6213 H   0  0  0  0  0  0
  1  2  1  0  0  0
  1 33  1  0  0  0
  1 34  1  0  0  0
  1 35  1  0  0  0
  2  3  1  0  0  0
  2 11  1  0  0  0
  3  4  2  0  0  0
  3  5  1  0  0  0
  5  6  1  0  0  0
  5 36  1  0  0  0
  5 37  1  0  0  0
  6  7  2  0  0  0
  6 11  1  0  0  0
  7  8  1  0  0  0
  7 38  1  0  0  0
  8  9  2  0  0  0
  8 39  1  0  0  0
  9 10  1  0  0  0
  9 12  1  0  0  0
 10 11  2  0  0  0
 10 40  1  0  0  0
 12 13  2  0  0  0
 12 32  1  0  0  0
 13 14  1  0  0  0
 13 41  1  0  0  0
 14 15  2  0  0  0
 14 42  1  0  0  0
 15 16  1  0  0  0
 15 31  1  0  0  0
 16 17  1  0  0  0
 16 43  1  0  0  0
 16 44  1  0  0  0
 17 18  1  0  0  0
 17 29  1  0  0  0
 17 45  1  0  0  0
 18 19  1  0  0  0
 18 46  1  0  0  0
 19 20  2  0  0  0
 19 21  1  0  0  0
 21 22  1  0  0  0
 21 26  1  0  0  0
 21 47  1  0  0  0
 22 23  1  0  0  0
 22 48  1  0  0  0
 22 61  1  0  0  0
 23 24  1  0  0  0
 23 28  1  0  0  0
 23 49  1  0  0  0
 24 25  1  0  0  0
 24 50  1  0  0  0
 24 51  1  0  0  0
 25 26  1  0  0  0
 25 52  1  0  0  0
 25 53  1  0  0  0
 26 27  1  0  0  0
 26 54  1  0  0  0
 27 28  1  0  0  0
 27 55  1  0  0  0
 27 56  1  0  0  0
 28 57  1  0  0  0
 28 58  1  0  0  0
 29 30  3  0  0  0
 31 32  2  0  0  0
 31 59  1  0  0  0
 32 60  1  0  0  0
M  CHG  1  22   1
M  END
> <chembl_id>
CHEMBL3695333

> <chembl_pref_name>
None

> <i_m_ct_stereo_status>
1

> <s_m_source_file>
sdf/inactives_sanitized.sdf

> <i_m_source_file_index>
628

> <i_lp_mmshare_version>
49012

> <i_f3d_flags>
0

> <s_epik_input>
Tz1DKFtDSDJdMSlOKFtDSDNdKWMoYzEyKVtjSF1jKFtjSF1bY0hdMiktYzNbY0hdW2NIXWMoW2NIXVtjSF0zKVtDSDJdW0NAQEhdKEMjTilbTkhdQyg9TylbQ0BASF0oW05IXVtDQEhdNDUpW0NAQEhdKFtDSDJdW0NIMl00KVtDSDJdW0NIMl01

> <s_epik_cmdline>
J2VwaWtfcHl0aG9uJywgJy1waHQnLCAnMC41JywgJy1waCcsICc3LjUnLCAnLW50JywgJy1tYScsICcyMDAnLCAnLWltYWUnLCAnPGluZmlsZS5tYWU+JywgJy1vbWFlJywgJzxvdXRmaWxlLm1hZT4n

> <r_epik_Ionization_Penalty>
  0.4114

> <r_epik_Ionization_Penalty_Charging>
  0.4113

> <r_epik_Ionization_Penalty_Neutral>
  0.0002

> <r_epik_State_Penalty>
  0.4113

> <r_epik_Charging_Adjusted_Penalty>
0.822612897831462

> <i_epik_Tot_Q>
1

> <i_epik_Tot_abs_Q>
1

> <s_lp_Force_Field>
OPLS3e

> <r_lp_Energy>
43.80776

> <b_lp_Chiralities_Consistent>
1

> <s_lp_Variant>
sdf/inactives_sanitized.sdf:628-2

$$$$
sdf/inactives_sanitized.sdf:629
                    3D
 Schrodinger Suite 2020-1.
 50 52  0  0  1  0            999 V2000
   -1.6574    3.3492    1.1873 N   0  0  0  0  0  0
   -0.3093    3.2291    1.1041 C   0  0  0  0  0  0
    0.6743    4.4790    1.5617 S   0  0  0  0  0  0
    0.2250    2.0655    0.6380 N   0  0  0  0  0  0
   -0.5051    0.9958    0.2353 N   0  0  0  0  0  0
    0.1061   -0.0511   -0.2076 C   0  0  0  0  0  0
   -0.7484   -1.2572   -0.4800 C   0  0  0  0  0  0
   -0.2678   -2.3616   -1.2105 C   0  0  0  0  0  0
   -1.0625   -3.4776   -1.4557 C   0  0  0  0  0  0
   -2.3680   -3.5140   -0.9812 C   0  0  0  0  0  0
   -3.4565   -5.0395   -1.3137 Br  0  0  0  0  0  0
   -2.8826   -2.4369   -0.2699 C   0  0  0  0  0  0
   -2.0834   -1.3232   -0.0281 C   0  0  0  0  0  0
    1.5787   -0.1006   -0.4954 C   0  0  0  0  0  0
    2.2354    0.9355   -1.1742 C   0  0  0  0  0  0
    3.5988    0.8701   -1.4350 C   0  0  0  0  0  0
    4.3367   -0.2331   -1.0177 C   0  0  0  0  0  0
    3.7405   -1.3002   -0.3230 C   0  0  0  0  0  0
    2.3534   -1.1978   -0.0842 C   0  0  0  0  0  0
    4.5246   -2.5001    0.1243 C   0  0  0  0  0  0
    3.8382   -3.5201    0.5154 N   0  0  0  0  0  0
    4.4835   -4.5846    1.0538 N   0  0  0  0  0  0
    3.8646   -5.7238    1.4735 C   0  0  0  0  0  0
    4.7466   -6.9718    2.1084 S   0  0  0  0  0  0
    2.5167   -5.8219    1.3614 N   0  0  0  0  0  0
    6.0220   -2.4811    0.0471 C   0  0  0  0  0  0
    6.7461   -1.3881    0.5495 C   0  0  0  0  0  0
    8.1366   -1.3589    0.4898 C   0  0  0  0  0  0
    8.8255   -2.4272   -0.0758 C   0  0  0  0  0  0
   10.7264   -2.3897   -0.1597 Br  0  0  0  0  0  0
    8.1320   -3.5227   -0.5803 C   0  0  0  0  0  0
    6.7417   -3.5477   -0.5183 C   0  0  0  0  0  0
   -2.0635    4.2057    1.5352 H   0  0  0  0  0  0
   -2.2471    2.5800    0.9039 H   0  0  0  0  0  0
    1.2271    1.9610    0.5677 H   0  0  0  0  0  0
    0.7249   -2.3730   -1.6324 H   0  0  0  0  0  0
   -0.6660   -4.3087   -2.0204 H   0  0  0  0  0  0
   -3.8987   -2.4621    0.0958 H   0  0  0  0  0  0
   -2.5235   -0.5123    0.5344 H   0  0  0  0  0  0
    1.6876    1.7963   -1.5306 H   0  0  0  0  0  0
    4.0832    1.6708   -1.9744 H   0  0  0  0  0  0
    5.3830   -0.2446   -1.2806 H   0  0  0  0  0  0
    1.8536   -1.9847    0.4636 H   0  0  0  0  0  0
    5.4875   -4.4985    1.1234 H   0  0  0  0  0  0
    1.9895   -5.0563    0.9674 H   0  0  0  0  0  0
    2.0483   -6.6622    1.6686 H   0  0  0  0  0  0
    6.2341   -0.5537    1.0080 H   0  0  0  0  0  0
    8.6770   -0.5110    0.8847 H   0  0  0  0  0  0
    8.6681   -4.3500   -1.0219 H   0  0  0  0  0  0
    6.2262   -4.4031   -0.9316 H   0  0  0  0  0  0
  1  2  1  0  0  0
  1 33  1  0  0  0
  1 34  1  0  0  0
  2  3  2  0  0  0
  2  4  1  0  0  0
  4  5  1  0  0  0
  4 35  1  0  0  0
  5  6  2  0  0  0
  6  7  1  0  0  0
  6 14  1  0  0  0
  7  8  2  0  0  0
  7 13  1  0  0  0
  8  9  1  0  0  0
  8 36  1  0  0  0
  9 10  2  0  0  0
  9 37  1  0  0  0
 10 11  1  0  0  0
 10 12  1  0  0  0
 12 13  2  0  0  0
 12 38  1  0  0  0
 13 39  1  0  0  0
 14 15  2  0  0  0
 14 19  1  0  0  0
 15 16  1  0  0  0
 15 40  1  0  0  0
 16 17  2  0  0  0
 16 41  1  0  0  0
 17 18  1  0  0  0
 17 42  1  0  0  0
 18 19  2  0  0  0
 18 20  1  0  0  0
 19 43  1  0  0  0
 20 21  2  0  0  0
 20 26  1  0  0  0
 21 22  1  0  0  0
 22 23  1  0  0  0
 22 44  1  0  0  0
 23 24  2  0  0  0
 23 25  1  0  0  0
 25 45  1  0  0  0
 25 46  1  0  0  0
 26 27  2  0  0  0
 26 32  1  0  0  0
 27 28  1  0  0  0
 27 47  1  0  0  0
 28 29  2  0  0  0
 28 48  1  0  0  0
 29 30  1  0  0  0
 29 31  1  0  0  0
 31 32  2  0  0  0
 31 49  1  0  0  0
 32 50  1  0  0  0
M  END
> <chembl_id>
CHEMBL3699014

> <chembl_pref_name>
None

> <s_m_source_file>
sdf/inactives_sanitized.sdf

> <i_m_source_file_index>
629

> <i_lp_mmshare_version>
49012

> <i_m_ct_stereo_status>
1

> <i_f3d_flags>
0

> <s_epik_input>
W2NIXTFbY0hdYyhCcilbY0hdW2NIXWMxXEMoPU5cW05IXUMoPVMpW05IMl0pYzJbY0hdW2NIXVtjSF1jKFtjSF0yKS9DKD1OL1tOSF1DKD1TKVtOSDJdKWMzW2NIXVtjSF1jKEJyKVtjSF1bY0hdMw==

> <s_epik_cmdline>
J2VwaWtfcHl0aG9uJywgJy1waHQnLCAnMC41JywgJy1waCcsICc3LjUnLCAnLW50JywgJy1tYScsICcyMDAnLCAnLWltYWUnLCAnPGluZmlsZS5tYWU+JywgJy1vbWFlJywgJzxvdXRmaWxlLm1hZT4n

> <r_lp_tautomer_probability>
1

> <r_epik_Ionization_Penalty>
  0.0001

> <r_epik_Ionization_Penalty_Charging>
  0.0000

> <r_epik_Ionization_Penalty_Neutral>
  0.0001

> <r_epik_State_Penalty>
 -0.0000

> <r_epik_Charging_Adjusted_Penalty>
0

> <i_epik_Tot_Q>
0

> <i_epik_Tot_abs_Q>
0

> <s_epik_Chemistry_Notes>
This compound has an imine and may undergo hydrolysis.

> <s_lp_Force_Field>
OPLS3e

> <r_lp_Energy>
102.637946

> <b_lp_Chiralities_Consistent>
1

> <s_lp_Variant>
sdf/inactives_sanitized.sdf:629-1

$$$$
sdf/inactives_sanitized.sdf:630
                    3D
 Schrodinger Suite 2020-1.
 51 52  0  0  1  0            999 V2000
    1.4262    0.4858   -2.6725 C   0  0  0  0  0  0
    1.7821   -0.3144   -1.3428 C   0  0  0  0  0  0
    1.7905   -0.1948   -3.7840 N   0  0  0  0  0  0
    1.6175    0.2121   -5.0999 C   0  0  0  0  0  0
    1.0931    1.3615   -5.4922 N   0  0  0  0  0  0
   -1.0097    1.1657    0.3326 C   0  0  0  0  0  0
    1.9883   -0.5664   -6.1955 C   0  0  0  0  0  0
   -0.1598    0.1407   -0.0635 N   0  0  0  0  0  0
    1.3022    0.3114   -0.0332 C   0  0  1  0  0  0
   -4.7288    0.9044    0.2308 C   0  0  0  0  0  0
    1.1112    1.3563   -6.8881 O   0  0  0  0  0  0
    2.4440   -1.3561   -1.3999 O   0  0  0  0  0  0
    1.6542    0.1853   -7.2983 C   0  0  0  0  0  0
    0.8797    1.5898   -2.6213 O   0  0  0  0  0  0
   -6.0344    0.4026    1.8830 O   0  0  0  0  0  0
   -0.6773    2.2904    0.7152 O   0  0  0  0  0  0
   -2.2790    0.7328    0.2299 O   0  0  0  0  0  0
   -3.3735    1.5972    0.5115 C   0  0  0  0  0  0
   -4.9940   -0.3323    1.1113 C   0  0  0  0  0  0
   -5.8910    1.5811    0.9834 C   0  0  0  0  0  0
   -5.0184    0.7077   -1.2827 C   0  0  0  0  0  0
    1.9555   -0.3529    1.2106 C   0  0  0  0  0  0
    1.5562    0.2983    2.5503 C   0  0  0  0  0  0
   -4.0888   -0.2695   -2.0234 C   0  0  0  0  0  0
    2.2937   -0.3112    3.7554 C   0  0  0  0  0  0
    1.8914    0.3317    5.0895 C   0  0  0  0  0  0
    2.2267   -1.0960   -3.6545 H   0  0  0  0  0  0
    2.4389   -1.5477   -6.1846 H   0  0  0  0  0  0
   -0.5372   -0.7844   -0.2082 H   0  0  0  0  0  0
    1.5928    1.3653   -0.0374 H   0  0  0  0  0  0
    1.7354    0.0334   -8.3647 H   0  0  0  0  0  0
   -3.2952    2.5096   -0.0828 H   0  0  0  0  0  0
   -3.3168    1.8950    1.5602 H   0  0  0  0  0  0
   -5.4684   -1.1832    0.6196 H   0  0  0  0  0  0
   -4.1898   -0.6276    1.7871 H   0  0  0  0  0  0
   -6.8235    1.7047    0.4301 H   0  0  0  0  0  0
   -5.6391    2.4584    1.5817 H   0  0  0  0  0  0
   -6.0417    0.3495   -1.4078 H   0  0  0  0  0  0
   -4.9868    1.6751   -1.7861 H   0  0  0  0  0  0
    1.6907   -1.4116    1.2484 H   0  0  0  0  0  0
    3.0423   -0.3057    1.1148 H   0  0  0  0  0  0
    1.7596    1.3695    2.5076 H   0  0  0  0  0  0
    0.4815    0.1928    2.7038 H   0  0  0  0  0  0
   -4.4543   -0.4550   -3.0339 H   0  0  0  0  0  0
   -4.0299   -1.2318   -1.5144 H   0  0  0  0  0  0
   -3.0781    0.1261   -2.1200 H   0  0  0  0  0  0
    2.0960   -1.3831    3.8021 H   0  0  0  0  0  0
    3.3708   -0.2048    3.6189 H   0  0  0  0  0  0
    2.4329   -0.1228    5.9197 H   0  0  0  0  0  0
    0.8254    0.2080    5.2832 H   0  0  0  0  0  0
    2.1115    1.3998    5.0966 H   0  0  0  0  0  0
  1  2  1  0  0  0
  1  3  1  0  0  0
  1 14  2  0  0  0
  2  9  1  0  0  0
  2 12  2  0  0  0
  3  4  1  0  0  0
  3 27  1  0  0  0
  4  5  2  0  0  0
  4  7  1  0  0  0
  5 11  1  0  0  0
  6  8  1  0  0  0
  6 16  2  0  0  0
  6 17  1  0  0  0
  7 13  2  0  0  0
  7 28  1  0  0  0
  8  9  1  0  0  0
  8 29  1  0  0  0
  9 22  1  0  0  0
  9 30  1  0  0  0
 10 18  1  0  0  0
 10 19  1  0  0  0
 10 20  1  0  0  0
 10 21  1  0  0  0
 11 13  1  0  0  0
 13 31  1  0  0  0
 15 20  1  0  0  0
 15 19  1  0  0  0
 17 18  1  0  0  0
 18 32  1  0  0  0
 18 33  1  0  0  0
 19 34  1  0  0  0
 19 35  1  0  0  0
 20 36  1  0  0  0
 20 37  1  0  0  0
 21 24  1  0  0  0
 21 38  1  0  0  0
 21 39  1  0  0  0
 22 23  1  0  0  0
 22 40  1  0  0  0
 22 41  1  0  0  0
 23 25  1  0  0  0
 23 42  1  0  0  0
 23 43  1  0  0  0
 24 44  1  0  0  0
 24 45  1  0  0  0
 24 46  1  0  0  0
 25 26  1  0  0  0
 25 47  1  0  0  0
 25 48  1  0  0  0
 26 49  1  0  0  0
 26 50  1  0  0  0
 26 51  1  0  0  0
M  END
> <chembl_id>
CHEMBL184883

> <chembl_pref_name>
None

> <i_m_ct_stereo_status>
1

> <s_m_source_file>
sdf/inactives_sanitized.sdf

> <i_m_source_file_index>
630

> <i_lp_mmshare_version>
49012

> <i_f3d_flags>
0

> <s_epik_input>
W2NIXTFbY0hdb25jMVtOSF1DKD1PKUMoPU8pW0NASF0oW0NIMl1bQ0gyXVtDSDJdW0NIM10pW05IXUMoPU8pT1tDSDJdQzIoW0NIMl1bQ0gzXSlbQ0gyXU9bQ0gyXTI=

> <s_epik_cmdline>
J2VwaWtfcHl0aG9uJywgJy1waHQnLCAnMC41JywgJy1waCcsICc3LjUnLCAnLW50JywgJy1tYScsICcyMDAnLCAnLWltYWUnLCAnPGluZmlsZS5tYWU+JywgJy1vbWFlJywgJzxvdXRmaWxlLm1hZT4n

> <r_lp_tautomer_probability>
0.99990000499975

> <r_epik_Ionization_Penalty>
  0.0096

> <r_epik_Ionization_Penalty_Charging>
  0.0000

> <r_epik_Ionization_Penalty_Neutral>
  0.0096

> <r_epik_State_Penalty>
  0.0073

> <r_epik_Charging_Adjusted_Penalty>
0.0073179853337415

> <i_epik_Tot_Q>
0

> <i_epik_Tot_abs_Q>
0

> <s_epik_Chemistry_Notes>
This compound has an ester and may undergo hydrolysis at high or low pH.

> <s_lp_Force_Field>
OPLS3e

> <r_lp_Energy>
26.179054

> <b_lp_Chiralities_Consistent>
1

> <s_lp_Variant>
sdf/inactives_sanitized.sdf:630-1

$$$$
sdf/inactives_sanitized.sdf:631
                    3D
 Schrodinger Suite 2020-1.
 44 46  0  0  1  0            999 V2000
   -3.3685   -2.8394    0.6619 C   0  0  0  0  0  0
   -4.4304   -3.7368    0.5867 C   0  0  0  0  0  0
   -5.4374   -3.5366   -0.3548 C   0  0  0  0  0  0
   -5.3921   -2.4473   -1.2218 C   0  0  0  0  0  0
   -4.3295   -1.5507   -1.1476 C   0  0  0  0  0  0
   -3.3135   -1.7439   -0.2058 C   0  0  0  0  0  0
   -2.1776   -0.7747   -0.1190 C   0  0  0  0  0  0
   -2.3591    0.6008    0.0761 C   0  0  0  0  0  0
   -0.8528    1.4481    0.1112 S   0  0  0  0  0  0
    0.0395   -0.0216   -0.1235 C   0  0  0  0  0  0
   -0.8105   -1.1411   -0.2275 C   0  0  0  0  0  0
   -0.3385   -2.5559   -0.5362 C   0  0  0  0  0  0
   -3.6123    1.3865    0.2760 C   0  0  0  0  0  0
    1.5094    0.0333   -0.1753 C   0  0  0  0  0  0
    2.1536   -0.9384    0.3523 N   0  0  0  0  0  0
    2.1148    1.2529   -0.8924 C   0  0  0  0  0  0
    3.5049   -0.8648    0.3287 N   0  0  0  0  0  0
    4.3483   -1.8199    0.8193 C   0  0  0  0  0  0
    5.6562   -1.5097    0.6883 N   0  0  0  0  0  0
    3.9263   -3.2691    1.5338 S   0  0  0  0  0  0
   -3.8542    2.5384   -0.4801 C   0  0  0  0  0  0
   -5.0321    3.2583   -0.2979 C   0  0  0  0  0  0
   -5.9672    2.8255    0.6394 C   0  0  0  0  0  0
   -5.7349    1.6797    1.3968 C   0  0  0  0  0  0
   -4.5571    0.9602    1.2147 C   0  0  0  0  0  0
   -2.5918   -2.9947    1.3968 H   0  0  0  0  0  0
   -4.4734   -4.5830    1.2565 H   0  0  0  0  0  0
   -6.2616   -4.2324   -0.4130 H   0  0  0  0  0  0
   -6.1776   -2.2989   -1.9481 H   0  0  0  0  0  0
   -4.2979   -0.7060   -1.8208 H   0  0  0  0  0  0
    0.5338   -2.5613   -1.1900 H   0  0  0  0  0  0
   -1.0875   -3.1426   -1.0680 H   0  0  0  0  0  0
   -0.0648   -3.0989    0.3685 H   0  0  0  0  0  0
    1.5733    1.4560   -1.8171 H   0  0  0  0  0  0
    3.1565    1.1194   -1.1839 H   0  0  0  0  0  0
    2.0367    2.1488   -0.2763 H   0  0  0  0  0  0
    3.8830   -0.0346   -0.1037 H   0  0  0  0  0  0
    5.9282   -0.6341    0.2661 H   0  0  0  0  0  0
    6.3574   -2.1570    1.0190 H   0  0  0  0  0  0
   -3.1350    2.8743   -1.2130 H   0  0  0  0  0  0
   -5.2203    4.1466   -0.8825 H   0  0  0  0  0  0
   -6.8815    3.3831    0.7799 H   0  0  0  0  0  0
   -6.4648    1.3503    2.1217 H   0  0  0  0  0  0
   -4.3810    0.0724    1.8046 H   0  0  0  0  0  0
  1  2  2  0  0  0
  1  6  1  0  0  0
  1 26  1  0  0  0
  2  3  1  0  0  0
  2 27  1  0  0  0
  3  4  2  0  0  0
  3 28  1  0  0  0
  4  5  1  0  0  0
  4 29  1  0  0  0
  5  6  2  0  0  0
  5 30  1  0  0  0
  6  7  1  0  0  0
  7  8  2  0  0  0
  7 11  1  0  0  0
  8  9  1  0  0  0
  8 13  1  0  0  0
  9 10  1  0  0  0
 10 11  2  0  0  0
 10 14  1  0  0  0
 11 12  1  0  0  0
 12 31  1  0  0  0
 12 32  1  0  0  0
 12 33  1  0  0  0
 13 21  2  0  0  0
 13 25  1  0  0  0
 14 15  2  0  0  0
 14 16  1  0  0  0
 15 17  1  0  0  0
 16 34  1  0  0  0
 16 35  1  0  0  0
 16 36  1  0  0  0
 17 18  1  0  0  0
 17 37  1  0  0  0
 18 19  1  0  0  0
 18 20  2  0  0  0
 19 38  1  0  0  0
 19 39  1  0  0  0
 21 22  1  0  0  0
 21 40  1  0  0  0
 22 23  2  0  0  0
 22 41  1  0  0  0
 23 24  1  0  0  0
 23 42  1  0  0  0
 24 25  2  0  0  0
 24 43  1  0  0  0
 25 44  1  0  0  0
M  END
> <chembl_id>
CHEMBL2316596

> <chembl_pref_name>
None

> <s_m_source_file>
sdf/inactives_sanitized.sdf

> <i_m_source_file_index>
631

> <i_lp_mmshare_version>
49012

> <i_m_ct_stereo_status>
1

> <i_f3d_flags>
0

> <s_epik_input>
W2NIXTFbY0hdW2NIXVtjSF1bY0hdYzEtYzJjKC1jM1tjSF1bY0hdW2NIXVtjSF1bY0hdMylzYyhjMltDSDNdKS9DKFtDSDNdKT1OL1tOSF1DKD1TKVtOSDJd

> <s_epik_cmdline>
J2VwaWtfcHl0aG9uJywgJy1waHQnLCAnMC41JywgJy1waCcsICc3LjUnLCAnLW50JywgJy1tYScsICcyMDAnLCAnLWltYWUnLCAnPGluZmlsZS5tYWU+JywgJy1vbWFlJywgJzxvdXRmaWxlLm1hZT4n

> <r_lp_tautomer_probability>
1

> <r_epik_Ionization_Penalty>
  0.0010

> <r_epik_Ionization_Penalty_Charging>
  0.0000

> <r_epik_Ionization_Penalty_Neutral>
  0.0010

> <r_epik_State_Penalty>
 -0.0000

> <r_epik_Charging_Adjusted_Penalty>
0

> <i_epik_Tot_Q>
0

> <i_epik_Tot_abs_Q>
0

> <s_epik_Chemistry_Notes>
This compound has an imine and may undergo hydrolysis.

> <s_lp_Force_Field>
OPLS3e

> <r_lp_Energy>
44.873538

> <b_lp_Chiralities_Consistent>
1

> <s_lp_Variant>
sdf/inactives_sanitized.sdf:631-1

$$$$
sdf/inactives_sanitized.sdf:632
                    3D
 Schrodinger Suite 2020-1.
 53 56  0  0  1  0            999 V2000
    3.1954   -0.8746   -4.2485 C   0  0  0  0  0  0
    3.9135   -0.6390   -2.9316 C   0  0  0  0  0  0
    4.1923    0.2481   -4.1265 C   0  0  0  0  0  0
   -4.0595   -0.9586    0.3727 C   0  0  0  0  0  0
   -4.9977    0.0143    0.0050 C   0  0  0  0  0  0
   -4.5317    1.2913   -0.3332 C   0  0  0  0  0  0
   -3.1721    1.5884   -0.3058 C   0  0  0  0  0  0
   -2.2380    0.6116    0.0567 C   0  0  0  0  0  0
   -2.6985   -0.6676    0.3994 C   0  0  0  0  0  0
   -6.4600   -0.3007   -0.0233 C   0  0  0  0  0  0
   -7.3058    0.3013   -0.9672 C   0  0  0  0  0  0
   -8.6673    0.0112   -0.9945 C   0  0  0  0  0  0
   -9.1989   -0.8873   -0.0747 C   0  0  0  0  0  0
   -8.3793   -1.4965    0.8703 C   0  0  0  0  0  0
   -7.0182   -1.2041    0.8940 C   0  0  0  0  0  0
   -0.7663    0.9573    0.0966 C   0  0  0  0  0  0
    0.0892   -0.0769   -0.0164 N   0  0  0  0  0  0
   -0.3977    2.1275    0.2189 O   0  0  0  0  0  0
    1.5542    0.0056    0.0334 C   0  0  2  0  0  0
    2.1591   -0.7120   -1.1891 C   0  0  0  0  0  0
    3.1580   -0.0716   -1.8191 N   0  0  0  0  0  0
    1.7523   -1.8296   -1.5132 O   0  0  0  0  0  0
    2.1261   -0.5938    1.3464 C   0  0  0  0  0  0
    1.5634    0.0869    2.5898 C   0  0  0  0  0  0
    4.9321   -1.6313   -2.5440 C   0  0  0  0  0  0
    5.7319   -2.4101   -2.2394 N   0  0  0  0  0  0
    0.5004   -0.4892    3.2960 C   0  0  0  0  0  0
   -0.0011    0.1792    4.4143 C   0  0  0  0  0  0
    0.4984    1.3630    4.8520 N   0  0  0  0  0  0
    1.5306    1.9086    4.1590 C   0  0  0  0  0  0
    2.0891    1.3073    3.0294 C   0  0  0  0  0  0
    3.4628   -1.7480   -4.8441 H   0  0  0  0  0  0
    2.1371   -0.6240   -4.3300 H   0  0  0  0  0  0
    3.8212    1.2737   -4.1252 H   0  0  0  0  0  0
    5.1504    0.1533   -4.6386 H   0  0  0  0  0  0
   -4.3778   -1.9569    0.6348 H   0  0  0  0  0  0
   -5.2235    2.0732   -0.6094 H   0  0  0  0  0  0
   -2.8546    2.5875   -0.5698 H   0  0  0  0  0  0
   -2.0131   -1.4484    0.6970 H   0  0  0  0  0  0
   -6.9115    0.9933   -1.6969 H   0  0  0  0  0  0
   -9.3077    0.4794   -1.7276 H   0  0  0  0  0  0
  -10.2547   -1.1140   -0.0949 H   0  0  0  0  0  0
   -8.7977   -2.1915    1.5834 H   0  0  0  0  0  0
   -6.4019   -1.6795    1.6427 H   0  0  0  0  0  0
   -0.2855   -1.0050   -0.1477 H   0  0  0  0  0  0
    1.8652    1.0527   -0.0012 H   0  0  0  0  0  0
    3.4902    0.8050   -1.4436 H   0  0  0  0  0  0
    1.9143   -1.6638    1.4028 H   0  0  0  0  0  0
    3.2142   -0.5040    1.3650 H   0  0  0  0  0  0
    0.0652   -1.4263    2.9804 H   0  0  0  0  0  0
   -0.8245   -0.2340    4.9781 H   0  0  0  0  0  0
    1.9092    2.8518    4.5245 H   0  0  0  0  0  0
    2.9053    1.7825    2.5048 H   0  0  0  0  0  0
  1  2  1  0  0  0
  1  3  1  0  0  0
  1 32  1  0  0  0
  1 33  1  0  0  0
  2  3  1  0  0  0
  2 21  1  0  0  0
  2 25  1  0  0  0
  3 34  1  0  0  0
  3 35  1  0  0  0
  4  5  2  0  0  0
  4  9  1  0  0  0
  4 36  1  0  0  0
  5  6  1  0  0  0
  5 10  1  0  0  0
  6  7  2  0  0  0
  6 37  1  0  0  0
  7  8  1  0  0  0
  7 38  1  0  0  0
  8  9  2  0  0  0
  8 16  1  0  0  0
  9 39  1  0  0  0
 10 11  2  0  0  0
 10 15  1  0  0  0
 11 12  1  0  0  0
 11 40  1  0  0  0
 12 13  2  0  0  0
 12 41  1  0  0  0
 13 14  1  0  0  0
 13 42  1  0  0  0
 14 15  2  0  0  0
 14 43  1  0  0  0
 15 44  1  0  0  0
 16 17  1  0  0  0
 16 18  2  0  0  0
 17 19  1  0  0  0
 17 45  1  0  0  0
 19 20  1  0  0  0
 19 23  1  0  0  0
 19 46  1  0  0  0
 20 21  1  0  0  0
 20 22  2  0  0  0
 21 47  1  0  0  0
 23 24  1  0  0  0
 23 48  1  0  0  0
 23 49  1  0  0  0
 24 27  2  0  0  0
 24 31  1  0  0  0
 25 26  3  0  0  0
 27 28  1  0  0  0
 27 50  1  0  0  0
 28 29  2  0  0  0
 28 51  1  0  0  0
 29 30  1  0  0  0
 30 31  2  0  0  0
 30 52  1  0  0  0
 31 53  1  0  0  0
M  END
> <chembl_id>
CHEMBL4228604

> <chembl_pref_name>
None

> <i_m_ct_stereo_status>
1

> <s_m_source_file>
sdf/inactives_sanitized.sdf

> <i_m_source_file_index>
632

> <i_lp_mmshare_version>
49012

> <i_f3d_flags>
0

> <s_epik_input>
W2NIXTFbY0hdbltjSF1bY0hdYzFbQ0gyXVtDQEBIXShDKD1PKVtOSF1DMihDI04pW0NIMl1bQ0gyXTIpW05IXUMoPU8pYyhbY0hdW2NIXTMpW2NIXVtjSF1jMy1jNFtjSF1bY0hdW2NIXVtjSF1bY0hdNA==

> <s_epik_cmdline>
J2VwaWtfcHl0aG9uJywgJy1waHQnLCAnMC41JywgJy1waCcsICc3LjUnLCAnLW50JywgJy1tYScsICcyMDAnLCAnLWltYWUnLCAnPGluZmlsZS5tYWU+JywgJy1vbWFlJywgJzxvdXRmaWxlLm1hZT4n

> <r_lp_tautomer_probability>
1

> <r_epik_Ionization_Penalty>
  0.0049

> <r_epik_Ionization_Penalty_Charging>
  0.0000

> <r_epik_Ionization_Penalty_Neutral>
  0.0049

> <r_epik_State_Penalty>
 -0.0000

> <r_epik_Charging_Adjusted_Penalty>
0

> <i_epik_Tot_Q>
0

> <i_epik_Tot_abs_Q>
0

> <s_lp_Force_Field>
OPLS3e

> <r_lp_Energy>
45.825639

> <b_lp_Chiralities_Consistent>
1

> <s_lp_Variant>
sdf/inactives_sanitized.sdf:632-1

$$$$
sdf/inactives_sanitized.sdf:633
                    3D
 Schrodinger Suite 2020-1.
 43 44  0  0  1  0            999 V2000
    0.1149   -0.0425   -0.0385 C   0  0  2  0  0  0
   -0.4495   -0.8861   -1.2031 C   0  0  0  0  0  0
   -0.5045    1.3623   -0.0528 C   0  0  0  0  0  0
   -0.3511   -4.4511   -2.8602 N   0  0  0  0  0  0
   -0.1691    2.2934   -1.0462 C   0  0  0  0  0  0
   -0.7329    3.5773   -1.0692 C   0  0  0  0  0  0
   -1.0883   -3.6755   -2.4198 C   0  0  0  0  0  0
   -0.3676    4.5561   -2.1345 C   0  0  0  0  0  0
    1.2621    5.4709   -3.6912 N   0  0  0  0  0  0
   -0.9643    6.4108   -3.5904 N   0  0  0  0  0  0
    1.6721   -0.0322   -0.0293 C   0  0  0  0  0  0
   -0.0439   -0.7129   -2.3539 O   0  0  0  0  0  0
    0.2993    6.3440   -4.0787 C   0  0  0  0  0  0
   -1.3977   -1.7888   -0.8955 N   0  0  0  0  0  0
   -1.2757    5.5104   -2.6217 C   0  0  0  0  0  0
    0.9083    4.5875   -2.7212 C   0  0  0  0  0  0
   -2.0277   -2.6884   -1.8584 C   0  0  0  0  0  0
   -1.4265    1.7275    0.9330 C   0  0  0  0  0  0
   -1.6500    3.9143   -0.0639 C   0  0  0  0  0  0
   -1.9949    2.9987    0.9286 C   0  0  0  0  0  0
    2.3393    0.7803    1.1116 C   0  0  0  0  0  0
    3.8683    0.8242    0.9347 C   0  0  0  0  0  0
    1.9696    0.2616    2.5154 C   0  0  0  0  0  0
   -0.1969   -0.5318    0.8861 H   0  0  0  0  0  0
    0.5318    2.0045   -1.8158 H   0  0  0  0  0  0
    2.0333   -1.0613    0.0223 H   0  0  0  0  0  0
    2.0382    0.3499   -0.9845 H   0  0  0  0  0  0
    0.5636    7.0535   -4.8486 H   0  0  0  0  0  0
   -1.6535   -1.9148    0.0729 H   0  0  0  0  0  0
   -2.2871    5.5633   -2.2461 H   0  0  0  0  0  0
    1.6831    3.9017   -2.4114 H   0  0  0  0  0  0
   -2.4798   -2.1249   -2.6762 H   0  0  0  0  0  0
   -2.8312   -3.2326   -1.3619 H   0  0  0  0  0  0
   -1.7040    1.0289    1.7089 H   0  0  0  0  0  0
   -2.0987    4.8967   -0.0390 H   0  0  0  0  0  0
   -2.7021    3.2757    1.6965 H   0  0  0  0  0  0
    1.9884    1.8111    1.0437 H   0  0  0  0  0  0
    4.3069   -0.1725    1.0000 H   0  0  0  0  0  0
    4.3378    1.4430    1.7004 H   0  0  0  0  0  0
    4.1439    1.2449   -0.0331 H   0  0  0  0  0  0
    2.2528   -0.7842    2.6421 H   0  0  0  0  0  0
    0.9000    0.3442    2.7079 H   0  0  0  0  0  0
    2.4741    0.8363    3.2929 H   0  0  0  0  0  0
  1  2  1  0  0  0
  1  3  1  0  0  0
  1 11  1  0  0  0
  1 24  1  0  0  0
  2 12  2  0  0  0
  2 14  1  0  0  0
  3  5  2  0  0  0
  3 18  1  0  0  0
  4  7  3  0  0  0
  5  6  1  0  0  0
  5 25  1  0  0  0
  6  8  1  0  0  0
  6 19  2  0  0  0
  7 17  1  0  0  0
  8 15  2  0  0  0
  8 16  1  0  0  0
  9 16  2  0  0  0
  9 13  1  0  0  0
 10 15  1  0  0  0
 10 13  2  0  0  0
 11 21  1  0  0  0
 11 26  1  0  0  0
 11 27  1  0  0  0
 13 28  1  0  0  0
 14 17  1  0  0  0
 14 29  1  0  0  0
 15 30  1  0  0  0
 16 31  1  0  0  0
 17 32  1  0  0  0
 17 33  1  0  0  0
 18 20  2  0  0  0
 18 34  1  0  0  0
 19 20  1  0  0  0
 19 35  1  0  0  0
 20 36  1  0  0  0
 21 22  1  0  0  0
 21 23  1  0  0  0
 21 37  1  0  0  0
 22 38  1  0  0  0
 22 39  1  0  0  0
 22 40  1  0  0  0
 23 41  1  0  0  0
 23 42  1  0  0  0
 23 43  1  0  0  0
M  END
> <chembl_id>
CHEMBL122350

> <chembl_pref_name>
None

> <s_m_source_file>
sdf/inactives_sanitized.sdf

> <i_m_source_file_index>
633

> <i_lp_mmshare_version>
49012

> <i_m_ct_stereo_status>
1

> <i_f3d_flags>
0

> <s_epik_input>
TiNDW0NIMl1bTkhdQyg9TylbQ0BASF0oW0NIMl1bQ0hdKFtDSDNdKVtDSDNdKWMxW2NIXWMoW2NIXVtjSF1bY0hdMSktYzJbY0hdbltjSF1uW2NIXTI=

> <s_epik_cmdline>
J2VwaWtfcHl0aG9uJywgJy1waHQnLCAnMC41JywgJy1waCcsICc3LjUnLCAnLW50JywgJy1tYScsICcyMDAnLCAnLWltYWUnLCAnPGluZmlsZS5tYWU+JywgJy1vbWFlJywgJzxvdXRmaWxlLm1hZT4n

> <r_lp_tautomer_probability>
1

> <r_epik_Ionization_Penalty>
  0.0000

> <r_epik_Ionization_Penalty_Charging>
  0.0000

> <r_epik_Ionization_Penalty_Neutral>
  0.0000

> <r_epik_State_Penalty>
 -0.0000

> <r_epik_Charging_Adjusted_Penalty>
0

> <i_epik_Tot_Q>
0

> <i_epik_Tot_abs_Q>
0

> <s_lp_Force_Field>
OPLS3e

> <r_lp_Energy>
31.47235

> <b_lp_Chiralities_Consistent>
1

> <s_lp_Variant>
sdf/inactives_sanitized.sdf:633-1

$$$$
sdf/inactives_sanitized.sdf:634
                    3D
 Schrodinger Suite 2020-1.
 38 38  0  0  1  0            999 V2000
   -2.2318    1.1950   -0.2047 C   0  0  0  0  0  0
   -2.8464   -0.0567    0.0267 C   0  0  0  0  0  0
   -2.0428   -1.1994    0.1470 C   0  0  0  0  0  0
   -0.6624   -1.1183    0.0460 C   0  0  0  0  0  0
   -0.0319    0.1080   -0.1725 C   0  0  0  0  0  0
   -0.8216    1.2695   -0.3117 C   0  0  0  0  0  0
   -3.0708    2.4862   -0.3456 C   0  0  0  0  0  0
   -4.3856    2.3368   -0.1855 F   0  0  0  0  0  0
   -2.6757    3.3785    0.5639 F   0  0  0  0  0  0
   -2.8849    3.0040   -1.5608 F   0  0  0  0  0  0
   -0.0602    2.8018   -0.6504 Cl  0  0  0  0  0  0
    1.4736    0.1399   -0.2841 C   0  0  0  0  0  0
    2.0101   -0.7570   -1.1385 N   0  0  0  0  0  0
    2.1426    0.9393    0.3725 O   0  0  0  0  0  0
    3.4386   -0.9215   -1.4636 C   0  0  2  0  0  0
    3.9326    0.2638   -2.3030 C   0  0  0  0  0  0
    3.6083   -2.2465   -2.2371 C   0  0  0  0  0  0
    3.1928    1.0657   -2.8849 O   0  0  0  0  0  0
    5.5092    0.4232   -2.3787 C   0  0  0  0  0  0
    5.8991    1.4230   -3.1780 N   0  0  0  0  0  0
    6.2735   -0.3114   -1.7545 O   0  0  0  0  0  0
   -4.2266   -0.1201    0.1208 O   0  0  0  0  0  0
   -4.8821   -1.3611    0.3694 C   0  0  0  0  0  0
   -6.3928   -1.1145    0.4154 C   0  0  0  0  0  0
   -2.4713   -2.1741    0.3222 H   0  0  0  0  0  0
   -0.0843   -2.0260    0.1507 H   0  0  0  0  0  0
    1.3839   -1.3620   -1.6490 H   0  0  0  0  0  0
    3.9863   -0.9956   -0.5212 H   0  0  0  0  0  0
    4.6541   -2.4520   -2.4694 H   0  0  0  0  0  0
    3.0565   -2.2439   -3.1789 H   0  0  0  0  0  0
    3.2444   -3.0911   -1.6504 H   0  0  0  0  0  0
    5.2123    1.9872   -3.6574 H   0  0  0  0  0  0
    6.8813    1.6206   -3.3026 H   0  0  0  0  0  0
   -4.6550   -2.0792   -0.4205 H   0  0  0  0  0  0
   -4.5515   -1.7829    1.3202 H   0  0  0  0  0  0
   -6.9342   -2.0403    0.6103 H   0  0  0  0  0  0
   -6.7537   -0.7104   -0.5308 H   0  0  0  0  0  0
   -6.6515   -0.4051    1.2022 H   0  0  0  0  0  0
  1  6  2  0  0  0
  1  2  1  0  0  0
  1  7  1  0  0  0
  2  3  2  0  0  0
  2 22  1  0  0  0
  3  4  1  0  0  0
  3 25  1  0  0  0
  4  5  2  0  0  0
  4 26  1  0  0  0
  5 12  1  0  0  0
  5  6  1  0  0  0
  6 11  1  0  0  0
  7  8  1  0  0  0
  7  9  1  0  0  0
  7 10  1  0  0  0
 12 13  1  0  0  0
 12 14  2  0  0  0
 13 15  1  0  0  0
 13 27  1  0  0  0
 15 16  1  0  0  0
 15 17  1  0  0  0
 15 28  1  0  0  0
 16 18  2  0  0  0
 16 19  1  0  0  0
 17 29  1  0  0  0
 17 30  1  0  0  0
 17 31  1  0  0  0
 19 20  1  0  0  0
 19 21  2  0  0  0
 20 32  1  0  0  0
 20 33  1  0  0  0
 22 23  1  0  0  0
 23 24  1  0  0  0
 23 34  1  0  0  0
 23 35  1  0  0  0
 24 36  1  0  0  0
 24 37  1  0  0  0
 24 38  1  0  0  0
M  END
> <chembl_id>
CHEMBL1289422

> <chembl_pref_name>
None

> <s_m_source_file>
sdf/inactives_sanitized.sdf

> <i_m_source_file_index>
634

> <i_lp_mmshare_version>
49012

> <i_m_ct_stereo_status>
1

> <i_f3d_flags>
0

> <s_epik_input>
RkMoRikoRiljMWMoT1tDSDJdW0NIM10pW2NIXVtjSF1jKGMxQ2wpQyg9TylbTkhdW0NAQEhdKFtDSDNdKUMoPU8pQyg9TylbTkgyXQ==

> <s_epik_cmdline>
J2VwaWtfcHl0aG9uJywgJy1waHQnLCAnMC41JywgJy1waCcsICc3LjUnLCAnLW50JywgJy1tYScsICcyMDAnLCAnLWltYWUnLCAnPGluZmlsZS5tYWU+JywgJy1vbWFlJywgJzxvdXRmaWxlLm1hZT4n

> <r_lp_tautomer_probability>
1

> <r_epik_Ionization_Penalty>
  0.0001

> <r_epik_Ionization_Penalty_Charging>
  0.0000

> <r_epik_Ionization_Penalty_Neutral>
  0.0001

> <r_epik_State_Penalty>
 -0.0000

> <r_epik_Charging_Adjusted_Penalty>
0

> <i_epik_Tot_Q>
0

> <i_epik_Tot_abs_Q>
0

> <s_lp_Force_Field>
OPLS3e

> <r_lp_Energy>
31.327369

> <b_lp_Chiralities_Consistent>
1

> <s_lp_Variant>
sdf/inactives_sanitized.sdf:634-1

$$$$
sdf/inactives_sanitized.sdf:635
                    3D
 Schrodinger Suite 2020-1.
 31 32  0  0  1  0            999 V2000
   -2.6414    2.5717    0.6873 C   0  0  0  0  0  0
   -1.8922    1.3076    1.1095 C   0  0  0  0  0  0
   -0.5047    1.4722    0.5068 C   0  0  2  0  0  0
   -0.7547    2.1782   -0.8284 C   0  0  0  0  0  0
   -1.9971    2.9106   -0.5805 N   0  0  0  0  0  0
    0.2717    0.2179    0.4219 N   0  0  2  0  0  0
    2.0120    0.2891    0.1423 S   0  0  0  0  0  0
    2.1957    0.9220   -1.5218 C   0  0  0  0  0  0
    2.8573    2.1314   -1.7590 C   0  0  0  0  0  0
    2.9724    2.6199   -3.0612 C   0  0  0  0  0  0
    2.4308    1.9012   -4.1279 C   0  0  0  0  0  0
    1.7749    0.6924   -3.8935 C   0  0  0  0  0  0
    1.6577    0.2022   -2.5925 C   0  0  0  0  0  0
    2.5832    1.2748    1.0675 O   0  0  0  0  0  0
    2.5062   -1.0917    0.1165 O   0  0  0  0  0  0
    3.8654    4.2699   -3.3818 Br  0  0  0  0  0  0
   -2.5262    3.7957   -1.4444 C   0  0  0  0  0  0
   -2.0255    4.0972   -2.5277 O   0  0  0  0  0  0
   -2.4659    3.3637    1.4168 H   0  0  0  0  0  0
   -3.7072    2.3656    0.5774 H   0  0  0  0  0  0
   -1.8812    1.1855    2.1932 H   0  0  0  0  0  0
   -2.3881    0.4325    0.6851 H   0  0  0  0  0  0
    0.0987    2.0951    1.1695 H   0  0  0  0  0  0
   -0.8844    1.4485   -1.6291 H   0  0  0  0  0  0
    0.0686    2.8567   -1.0558 H   0  0  0  0  0  0
   -0.2078   -0.5574   -0.0434 H   0  0  0  0  0  0
    3.2766    2.6984   -0.9408 H   0  0  0  0  0  0
    2.5183    2.2792   -5.1359 H   0  0  0  0  0  0
    1.3559    0.1370   -4.7197 H   0  0  0  0  0  0
    1.1444   -0.7323   -2.4171 H   0  0  0  0  0  0
   -3.4683    4.2201   -1.0619 H   0  0  0  0  0  0
  1  5  1  0  0  0
  1  2  1  0  0  0
  1 19  1  0  0  0
  1 20  1  0  0  0
  2  3  1  0  0  0
  2 21  1  0  0  0
  2 22  1  0  0  0
  3  6  1  0  0  0
  3  4  1  0  0  0
  3 23  1  0  0  0
  4  5  1  0  0  0
  4 24  1  0  0  0
  4 25  1  0  0  0
  5 17  1  0  0  0
  6  7  1  0  0  0
  6 26  1  0  0  0
  7 14  2  0  0  0
  7 15  2  0  0  0
  7  8  1  0  0  0
  8  9  2  0  0  0
  8 13  1  0  0  0
  9 10  1  0  0  0
  9 27  1  0  0  0
 10 11  2  0  0  0
 10 16  1  0  0  0
 11 12  1  0  0  0
 11 28  1  0  0  0
 12 13  2  0  0  0
 12 29  1  0  0  0
 13 30  1  0  0  0
 17 18  2  0  0  0
 17 31  1  0  0  0
M  END
> <chembl_id>
CHEMBL1672428

> <chembl_pref_name>
None

> <i_m_ct_stereo_status>
1

> <s_m_source_file>
sdf/inactives_sanitized.sdf

> <i_m_source_file_index>
635

> <i_lp_mmshare_version>
49012

> <i_f3d_flags>
0

> <s_epik_input>
Tz1bQ0hdTihbQ0gyXTEpW0NIMl1bQ0gyXVtDQEhdMVtOSF1TKD1PKSg9TyljMltjSF1jKEJyKVtjSF1bY0hdW2NIXTI=

> <s_epik_cmdline>
J2VwaWtfcHl0aG9uJywgJy1waHQnLCAnMC41JywgJy1waCcsICc3LjUnLCAnLW50JywgJy1tYScsICcyMDAnLCAnLWltYWUnLCAnPGluZmlsZS5tYWU+JywgJy1vbWFlJywgJzxvdXRmaWxlLm1hZT4n

> <r_lp_tautomer_probability>
1

> <r_epik_Ionization_Penalty>
  0.0006

> <r_epik_Ionization_Penalty_Charging>
  0.0000

> <r_epik_Ionization_Penalty_Neutral>
  0.0006

> <r_epik_State_Penalty>
 -0.0000

> <r_epik_Charging_Adjusted_Penalty>
0

> <i_epik_Tot_Q>
0

> <i_epik_Tot_abs_Q>
0

> <s_lp_Force_Field>
OPLS3e

> <r_lp_Energy>
-0.175621

> <b_lp_Chiralities_Consistent>
1

> <s_lp_Variant>
sdf/inactives_sanitized.sdf:635-1

$$$$
sdf/inactives_sanitized.sdf:636
                    3D
 Schrodinger Suite 2020-1.
 77 80  0  0  1  0            999 V2000
   -0.7436   -4.1965    2.5308 C   0  0  0  0  0  0
   -0.3552   -3.2534    1.3841 C   0  0  0  0  0  0
   -1.0534   -1.8813    1.4745 C   0  0  0  0  0  0
   -0.7109   -0.9342    0.2949 C   0  0  2  0  0  0
    0.7240   -0.6034    0.2653 N   0  0  0  0  0  0
    1.4739   -0.3837   -0.8307 C   0  0  0  0  0  0
    1.0257   -0.4551   -1.9767 O   0  0  0  0  0  0
    2.9154    0.1138   -0.5769 C   0  0  2  0  0  0
    3.0137    1.6406   -0.6501 C   0  0  0  0  0  0
    3.4010    1.9344   -2.0892 C   0  0  2  0  0  0
    4.1890    0.7137   -2.5728 C   0  0  0  0  0  0
    3.8616   -0.3527   -1.6147 N   0  0  0  0  0  0
    4.3827   -1.6118   -1.6285 C   0  0  0  0  0  0
    4.0538   -2.4323   -0.7665 O   0  0  0  0  0  0
    5.3772   -2.0580   -2.7494 C   0  0  0  0  0  0
    5.6253   -3.5646   -2.8141 C   0  0  0  0  0  0
    4.6681   -2.9314   -3.7845 C   0  0  0  0  0  0
    6.5093   -1.1123   -3.1633 C   0  0  0  0  0  0
    6.6047   -0.6218   -4.4712 C   0  0  0  0  0  0
    7.6291    0.2551   -4.8150 C   0  0  0  0  0  0
    8.5555    0.6493   -3.8521 C   0  0  0  0  0  0
    9.8120    1.7536   -4.2764 Cl  0  0  0  0  0  0
    8.4705    0.1647   -2.5487 C   0  0  0  0  0  0
    7.4492   -0.7168   -2.2058 C   0  0  0  0  0  0
    4.3771    3.5524   -2.2622 S   0  0  0  0  0  0
    3.4822    4.6819   -1.9879 O   0  0  0  0  0  0
    5.6247    3.4149   -1.5011 O   0  0  0  0  0  0
    4.8070    3.6188   -4.0102 C   0  0  0  0  0  0
    6.1506    3.4719   -4.3775 C   0  0  0  0  0  0
    6.5271    3.5058   -5.7189 C   0  0  0  0  0  0
    5.5633    3.6837   -6.7083 C   0  0  0  0  0  0
    4.2233    3.8293   -6.3548 C   0  0  0  0  0  0
    3.8358    3.7983   -5.0130 C   0  0  0  0  0  0
    2.1525    3.9841   -4.6546 Cl  0  0  0  0  0  0
   -1.4521    0.4012    0.4017 C   0  0  0  0  0  0
   -1.9751    0.8325    1.4324 O   0  0  0  0  0  0
   -1.5338    1.2455   -0.9246 C   0  0  0  0  0  0
   -1.9235    0.7465   -1.9806 O   0  0  0  0  0  0
   -1.0813    2.4989   -0.7406 N   0  0  0  0  0  0
   -0.9142    3.4959   -1.7988 C   0  0  0  0  0  0
    0.0119    4.6283   -1.3290 C   0  0  0  0  0  0
   -2.2579    4.0391   -2.3234 C   0  0  0  0  0  0
   -0.2301   -5.1538    2.4381 H   0  0  0  0  0  0
   -1.8159   -4.3954    2.5336 H   0  0  0  0  0  0
   -0.4788   -3.7719    3.4999 H   0  0  0  0  0  0
    0.7277   -3.1222    1.3904 H   0  0  0  0  0  0
   -0.6026   -3.7294    0.4341 H   0  0  0  0  0  0
   -2.1331   -2.0400    1.5105 H   0  0  0  0  0  0
   -0.7734   -1.4140    2.4213 H   0  0  0  0  0  0
   -1.0069   -1.4494   -0.6225 H   0  0  0  0  0  0
    1.1576   -0.5073    1.1722 H   0  0  0  0  0  0
    3.1958   -0.2682    0.4067 H   0  0  0  0  0  0
    2.1245    2.1711   -0.3041 H   0  0  0  0  0  0
    3.8089    1.9580    0.0265 H   0  0  0  0  0  0
    2.5006    2.0657   -2.6885 H   0  0  0  0  0  0
    3.9473    0.4779   -3.6101 H   0  0  0  0  0  0
    5.2454    0.9635   -2.4867 H   0  0  0  0  0  0
    6.5921   -3.9095   -3.1821 H   0  0  0  0  0  0
    5.2302   -4.2376   -2.0519 H   0  0  0  0  0  0
    4.9611   -2.8875   -4.8330 H   0  0  0  0  0  0
    3.6015   -3.1403   -3.6818 H   0  0  0  0  0  0
    5.8820   -0.8985   -5.2233 H   0  0  0  0  0  0
    7.6955    0.6356   -5.8236 H   0  0  0  0  0  0
    9.1898    0.4716   -1.8036 H   0  0  0  0  0  0
    7.3829   -1.0867   -1.1927 H   0  0  0  0  0  0
    6.9157    3.3278   -3.6290 H   0  0  0  0  0  0
    7.5664    3.3910   -5.9901 H   0  0  0  0  0  0
    5.8539    3.7091   -7.7481 H   0  0  0  0  0  0
    3.4824    3.9668   -7.1289 H   0  0  0  0  0  0
   -0.7747    2.7700    0.1823 H   0  0  0  0  0  0
   -0.4035    3.0090   -2.6334 H   0  0  0  0  0  0
    0.1388    5.3771   -2.1117 H   0  0  0  0  0  0
    1.0053    4.2548   -1.0816 H   0  0  0  0  0  0
   -0.3960    5.1486   -0.4616 H   0  0  0  0  0  0
   -2.0946    4.8121   -3.0750 H   0  0  0  0  0  0
   -2.8448    4.4959   -1.5255 H   0  0  0  0  0  0
   -2.8532    3.2595   -2.7997 H   0  0  0  0  0  0
  1  2  1  0  0  0
  1 43  1  0  0  0
  1 44  1  0  0  0
  1 45  1  0  0  0
  2  3  1  0  0  0
  2 46  1  0  0  0
  2 47  1  0  0  0
  3  4  1  0  0  0
  3 48  1  0  0  0
  3 49  1  0  0  0
  4  5  1  0  0  0
  4 35  1  0  0  0
  4 50  1  0  0  0
  5  6  1  0  0  0
  5 51  1  0  0  0
  6  7  2  0  0  0
  6  8  1  0  0  0
  8  9  1  0  0  0
  8 12  1  0  0  0
  8 52  1  0  0  0
  9 10  1  0  0  0
  9 53  1  0  0  0
  9 54  1  0  0  0
 10 11  1  0  0  0
 10 25  1  0  0  0
 10 55  1  0  0  0
 11 12  1  0  0  0
 11 56  1  0  0  0
 11 57  1  0  0  0
 12 13  1  0  0  0
 13 14  2  0  0  0
 13 15  1  0  0  0
 15 16  1  0  0  0
 15 17  1  0  0  0
 15 18  1  0  0  0
 16 17  1  0  0  0
 16 58  1  0  0  0
 16 59  1  0  0  0
 17 60  1  0  0  0
 17 61  1  0  0  0
 18 19  2  0  0  0
 18 24  1  0  0  0
 19 20  1  0  0  0
 19 62  1  0  0  0
 20 21  2  0  0  0
 20 63  1  0  0  0
 21 22  1  0  0  0
 21 23  1  0  0  0
 23 24  2  0  0  0
 23 64  1  0  0  0
 24 65  1  0  0  0
 25 26  2  0  0  0
 25 27  2  0  0  0
 25 28  1  0  0  0
 28 29  2  0  0  0
 28 33  1  0  0  0
 29 30  1  0  0  0
 29 66  1  0  0  0
 30 31  2  0  0  0
 30 67  1  0  0  0
 31 32  1  0  0  0
 31 68  1  0  0  0
 32 33  2  0  0  0
 32 69  1  0  0  0
 33 34  1  0  0  0
 35 36  2  0  0  0
 35 37  1  0  0  0
 37 38  2  0  0  0
 37 39  1  0  0  0
 39 40  1  0  0  0
 39 70  1  0  0  0
 40 41  1  0  0  0
 40 42  1  0  0  0
 40 71  1  0  0  0
 41 72  1  0  0  0
 41 73  1  0  0  0
 41 74  1  0  0  0
 42 75  1  0  0  0
 42 76  1  0  0  0
 42 77  1  0  0  0
M  END
> <chembl_id>
CHEMBL3649402

> <chembl_pref_name>
None

> <i_m_ct_stereo_status>
1

> <s_m_source_file>
sdf/inactives_sanitized.sdf

> <i_m_source_file_index>
636

> <i_lp_mmshare_version>
49012

> <i_f3d_flags>
0

> <s_epik_input>
W0NIM11bQ0hdKFtDSDNdKVtOSF1DKD1PKUMoPU8pW0NASF0oW0NIMl1bQ0gyXVtDSDNdKVtOSF1DKD1PKVtDQEBIXTFbQ0gyXVtDQEBIXShTKD1PKSg9TyljMltjSF1bY0hdW2NIXVtjSF1jMkNsKVtDSDJdTjFDKD1PKUMzKFtDSDJdW0NIMl0zKWM0W2NIXVtjSF1jKENsKVtjSF1bY0hdNA==

> <s_epik_cmdline>
J2VwaWtfcHl0aG9uJywgJy1waHQnLCAnMC41JywgJy1waCcsICc3LjUnLCAnLW50JywgJy1tYScsICcyMDAnLCAnLWltYWUnLCAnPGluZmlsZS5tYWU+JywgJy1vbWFlJywgJzxvdXRmaWxlLm1hZT4n

> <r_lp_tautomer_probability>
1

> <r_epik_Ionization_Penalty>
  0.0000

> <r_epik_Ionization_Penalty_Charging>
  0.0000

> <r_epik_Ionization_Penalty_Neutral>
  0.0000

> <r_epik_State_Penalty>
 -0.0000

> <r_epik_Charging_Adjusted_Penalty>
0

> <i_epik_Tot_Q>
0

> <i_epik_Tot_abs_Q>
0

> <s_lp_Force_Field>
OPLS3e

> <r_lp_Energy>
50.311221

> <b_lp_Chiralities_Consistent>
1

> <s_lp_Variant>
sdf/inactives_sanitized.sdf:636-1

$$$$
sdf/inactives_sanitized.sdf:637
                    3D
 Schrodinger Suite 2020-1.
 38 39  0  0  1  0            999 V2000
   -1.5141   -1.2755    0.9532 C   0  0  0  0  0  0
   -1.0385   -2.0636    1.9189 F   0  0  0  0  0  0
   -2.8367   -1.1503    1.0767 F   0  0  0  0  0  0
   -0.8569    0.1182    1.0256 C   0  0  0  0  0  0
    0.0635    0.2330   -0.2130 C   0  0  2  0  0  0
   -0.5757   -0.7280   -1.2674 C   0  0  1  0  0  0
   -1.1698   -1.8812   -0.4219 C   0  0  0  0  0  0
    1.5113   -0.1837    0.1605 C   0  0  0  0  0  0
   -1.6978   -0.0445   -2.1098 C   0  0  0  0  0  0
   -2.1950    1.0102   -1.7051 O   0  0  0  0  0  0
   -2.1920   -0.6895   -3.2023 N   0  0  0  0  0  0
   -1.4925   -1.7999   -3.8698 C   0  0  0  0  0  0
   -0.8052   -1.1969   -5.1156 C   0  0  0  0  0  0
   -1.7750   -0.5584   -5.9489 O   0  0  0  0  0  0
   -2.4978    0.4859   -5.2923 C   0  0  0  0  0  0
   -3.2275   -0.0625   -4.0426 C   0  0  0  0  0  0
    2.3444    0.8143    0.5039 N   0  0  0  0  0  0
    1.8901   -1.3520    0.0593 O   0  0  0  0  0  0
    3.7448    0.6349    0.8786 C   0  0  0  0  0  0
    3.9095   -0.1173    2.1353 C   0  0  0  0  0  0
    4.0389   -0.7075    3.1222 N   0  0  0  0  0  0
   -1.6116    0.9043    0.9652 H   0  0  0  0  0  0
   -0.3311    0.2810    1.9693 H   0  0  0  0  0  0
    0.1421    1.2470   -0.6133 H   0  0  0  0  0  0
    0.1787   -1.0502   -1.9873 H   0  0  0  0  0  0
   -2.0305   -2.3653   -0.8882 H   0  0  0  0  0  0
   -0.4137   -2.6615   -0.3226 H   0  0  0  0  0  0
   -0.8892   -2.4510   -3.2377 H   0  0  0  0  0  0
   -2.2978   -2.4572   -4.2005 H   0  0  0  0  0  0
   -0.0275   -0.4868   -4.8274 H   0  0  0  0  0  0
   -0.2982   -1.9811   -5.6777 H   0  0  0  0  0  0
   -1.8200    1.2980   -5.0216 H   0  0  0  0  0  0
   -3.2203    0.9165   -5.9854 H   0  0  0  0  0  0
   -3.8782   -0.8868   -4.3372 H   0  0  0  0  0  0
   -3.8829    0.6384   -3.5236 H   0  0  0  0  0  0
    1.9723    1.7490    0.5882 H   0  0  0  0  0  0
    4.2964    0.1257    0.0868 H   0  0  0  0  0  0
    4.2047    1.6143    1.0106 H   0  0  0  0  0  0
  1  2  1  0  0  0
  1  3  1  0  0  0
  1  4  1  0  0  0
  1  7  1  0  0  0
  4  5  1  0  0  0
  4 22  1  0  0  0
  4 23  1  0  0  0
  5  6  1  0  0  0
  5  8  1  0  0  0
  5 24  1  0  0  0
  6  7  1  0  0  0
  6  9  1  0  0  0
  6 25  1  0  0  0
  7 26  1  0  0  0
  7 27  1  0  0  0
  8 17  1  0  0  0
  8 18  2  0  0  0
  9 10  2  0  0  0
  9 11  1  0  0  0
 11 12  1  0  0  0
 11 16  1  0  0  0
 12 13  1  0  0  0
 12 28  1  0  0  0
 12 29  1  0  0  0
 13 14  1  0  0  0
 13 30  1  0  0  0
 13 31  1  0  0  0
 14 15  1  0  0  0
 15 16  1  0  0  0
 15 32  1  0  0  0
 15 33  1  0  0  0
 16 34  1  0  0  0
 16 35  1  0  0  0
 17 19  1  0  0  0
 17 36  1  0  0  0
 19 20  1  0  0  0
 19 37  1  0  0  0
 19 38  1  0  0  0
 20 21  3  0  0  0
M  END
> <chembl_id>
CHEMBL3093938

> <chembl_pref_name>
None

> <i_m_ct_stereo_status>
1

> <s_m_source_file>
sdf/inactives_sanitized.sdf

> <i_m_source_file_index>
637

> <i_lp_mmshare_version>
49012

> <i_f3d_flags>
0

> <s_epik_input>
TiNDW0NIMl1bTkhdQyg9TylbQ0BIXShbQ0gyXUMxKEYpRilbQ0BASF0oW0NIMl0xKUMoPU8pTjJbQ0gyXVtDSDJdT1tDSDJdW0NIMl0y

> <s_epik_cmdline>
J2VwaWtfcHl0aG9uJywgJy1waHQnLCAnMC41JywgJy1waCcsICc3LjUnLCAnLW50JywgJy1tYScsICcyMDAnLCAnLWltYWUnLCAnPGluZmlsZS5tYWU+JywgJy1vbWFlJywgJzxvdXRmaWxlLm1hZT4n

> <r_lp_tautomer_probability>
1

> <r_epik_Ionization_Penalty>
  0.0000

> <r_epik_Ionization_Penalty_Charging>
  0.0000

> <r_epik_Ionization_Penalty_Neutral>
  0.0000

> <r_epik_State_Penalty>
 -0.0000

> <r_epik_Charging_Adjusted_Penalty>
0

> <i_epik_Tot_Q>
0

> <i_epik_Tot_abs_Q>
0

> <s_lp_Force_Field>
OPLS3e

> <r_lp_Energy>
14.198938

> <b_lp_Chiralities_Consistent>
1

> <s_lp_Variant>
sdf/inactives_sanitized.sdf:637-1

$$$$
sdf/inactives_sanitized.sdf:638
                    3D
 Schrodinger Suite 2020-1.
 60 61  0  0  1  0            999 V2000
   -0.7471   -0.3691   -2.5864 C   0  0  0  0  0  0
   -0.4956   -0.8372   -1.3469 N   0  0  0  0  0  0
    0.0541   -0.0590   -0.2293 C   0  0  2  0  0  0
    1.5400    0.3023   -0.4611 C   0  0  0  0  0  0
   -1.2937   -1.3664   -3.5852 C   0  0  0  0  0  0
   -0.5714    0.8094   -2.9052 O   0  0  0  0  0  0
   -1.1597   -2.7532   -3.3941 C   0  0  0  0  0  0
    2.3066   -0.5131   -0.9781 O   0  0  0  0  0  0
   -0.1586   -0.8700    1.0796 C   0  0  0  0  0  0
    1.9164    1.5148   -0.0264 N   0  0  0  0  0  0
    3.3715    4.1676    3.0831 C   0  0  0  0  0  0
    3.2682    3.1036    2.1704 N   0  0  0  0  0  0
    3.5760    6.1971    5.0110 C   0  0  0  0  0  0
   -1.6646   -3.6595   -4.3308 C   0  0  0  0  0  0
    3.4375    5.5104    2.6892 C   0  0  0  0  0  0
    3.4040    3.8505    4.4416 C   0  0  0  0  0  0
    3.5074    4.8582    5.3964 C   0  0  0  0  0  0
    3.5392    6.5177    3.6453 C   0  0  0  0  0  0
    3.6769    7.1277    6.0275 O   0  0  0  0  0  0
   -1.9392   -0.9119   -4.7454 C   0  0  0  0  0  0
   -2.4412   -1.8134   -5.6833 C   0  0  0  0  0  0
    0.2038   -0.1438    2.4009 C   0  0  0  0  0  0
    3.2816    2.0258   -0.0943 C   0  0  0  0  0  0
    3.4630    3.3065    0.7370 C   0  0  0  0  0  0
   -2.3046   -3.1843   -5.4773 C   0  0  0  0  0  0
   -1.5001   -5.1514   -4.1054 C   0  0  0  0  0  0
    3.7494    8.5110    5.6982 C   0  0  0  0  0  0
    0.0603   -1.0933    3.6100 C   0  0  0  0  0  0
   -0.5799    1.1726    2.5950 C   0  0  0  0  0  0
   -0.6669   -1.8129   -1.1537 H   0  0  0  0  0  0
   -0.5354    0.8585   -0.1783 H   0  0  0  0  0  0
   -0.6576   -3.1433   -2.5199 H   0  0  0  0  0  0
   -1.2058   -1.1720    1.1449 H   0  0  0  0  0  0
    0.4144   -1.7980    1.0208 H   0  0  0  0  0  0
    1.2258    2.1240    0.3883 H   0  0  0  0  0  0
    3.4632    2.1801    2.5301 H   0  0  0  0  0  0
    3.4128    5.7927    1.6476 H   0  0  0  0  0  0
    3.3509    2.8207    4.7661 H   0  0  0  0  0  0
    3.5341    4.5973    6.4444 H   0  0  0  0  0  0
    3.5885    7.5414    3.3065 H   0  0  0  0  0  0
   -2.0597    0.1460   -4.9321 H   0  0  0  0  0  0
   -2.9353   -1.4478   -6.5715 H   0  0  0  0  0  0
    1.2614    0.1182    2.3538 H   0  0  0  0  0  0
    3.9729    1.2632    0.2719 H   0  0  0  0  0  0
    3.5486    2.2195   -1.1344 H   0  0  0  0  0  0
    2.8064    4.0964    0.3696 H   0  0  0  0  0  0
    4.4760    3.6854    0.5945 H   0  0  0  0  0  0
   -2.6958   -3.8736   -6.2114 H   0  0  0  0  0  0
   -1.7323   -5.7285   -5.0014 H   0  0  0  0  0  0
   -2.1420   -5.4849   -3.2896 H   0  0  0  0  0  0
   -0.4695   -5.3780   -3.8292 H   0  0  0  0  0  0
    3.8230    9.0960    6.6149 H   0  0  0  0  0  0
    2.8564    8.8428    5.1663 H   0  0  0  0  0  0
    4.6301    8.7329    5.0936 H   0  0  0  0  0  0
   -0.7345   -0.7917    4.2922 H   0  0  0  0  0  0
    0.9856   -1.1279    4.1857 H   0  0  0  0  0  0
   -0.1629   -2.1156    3.3031 H   0  0  0  0  0  0
   -0.9544    1.2945    3.6113 H   0  0  0  0  0  0
   -1.4411    1.2387    1.9297 H   0  0  0  0  0  0
    0.0588    2.0327    2.3900 H   0  0  0  0  0  0
  1  2  1  0  0  0
  1  5  1  0  0  0
  1  6  2  0  0  0
  2  3  1  0  0  0
  2 30  1  0  0  0
  3  4  1  0  0  0
  3  9  1  0  0  0
  3 31  1  0  0  0
  4  8  2  0  0  0
  4 10  1  0  0  0
  5  7  2  0  0  0
  5 20  1  0  0  0
  7 14  1  0  0  0
  7 32  1  0  0  0
  9 22  1  0  0  0
  9 33  1  0  0  0
  9 34  1  0  0  0
 10 23  1  0  0  0
 10 35  1  0  0  0
 11 12  1  0  0  0
 11 15  1  0  0  0
 11 16  2  0  0  0
 12 24  1  0  0  0
 12 36  1  0  0  0
 13 17  2  0  0  0
 13 19  1  0  0  0
 13 18  1  0  0  0
 14 26  1  0  0  0
 14 25  2  0  0  0
 15 18  2  0  0  0
 15 37  1  0  0  0
 16 17  1  0  0  0
 16 38  1  0  0  0
 17 39  1  0  0  0
 18 40  1  0  0  0
 19 27  1  0  0  0
 20 21  2  0  0  0
 20 41  1  0  0  0
 21 25  1  0  0  0
 21 42  1  0  0  0
 22 28  1  0  0  0
 22 29  1  0  0  0
 22 43  1  0  0  0
 23 24  1  0  0  0
 23 44  1  0  0  0
 23 45  1  0  0  0
 24 46  1  0  0  0
 24 47  1  0  0  0
 25 48  1  0  0  0
 26 49  1  0  0  0
 26 50  1  0  0  0
 26 51  1  0  0  0
 27 52  1  0  0  0
 27 53  1  0  0  0
 27 54  1  0  0  0
 28 55  1  0  0  0
 28 56  1  0  0  0
 28 57  1  0  0  0
 29 58  1  0  0  0
 29 59  1  0  0  0
 29 60  1  0  0  0
M  END
> <chembl_id>
CHEMBL64765

> <chembl_pref_name>
None

> <i_m_ct_stereo_status>
1

> <s_m_source_file>
sdf/inactives_sanitized.sdf

> <i_m_source_file_index>
638

> <i_lp_mmshare_version>
49012

> <i_f3d_flags>
0

> <s_epik_input>
W2NIXTFbY0hdW2NIXWMoW0NIM10pW2NIXWMxQyg9TylbTkhdW0NAQEhdKFtDSDJdW0NIXShbQ0gzXSlbQ0gzXSlDKD1PKVtOSF1bQ0gyXVtDSDJdW05IXWMyW2NIXVtjSF1jKFtjSF1bY0hdMilPW0NIM10=

> <s_epik_cmdline>
J2VwaWtfcHl0aG9uJywgJy1waHQnLCAnMC41JywgJy1waCcsICc3LjUnLCAnLW50JywgJy1tYScsICcyMDAnLCAnLWltYWUnLCAnPGluZmlsZS5tYWU+JywgJy1vbWFlJywgJzxvdXRmaWxlLm1hZT4n

> <r_lp_tautomer_probability>
1

> <r_epik_Ionization_Penalty>
  0.0017

> <r_epik_Ionization_Penalty_Charging>
  0.0000

> <r_epik_Ionization_Penalty_Neutral>
  0.0017

> <r_epik_State_Penalty>
 -0.0000

> <r_epik_Charging_Adjusted_Penalty>
0

> <i_epik_Tot_Q>
0

> <i_epik_Tot_abs_Q>
0

> <s_lp_Force_Field>
OPLS3e

> <r_lp_Energy>
27.096282

> <b_lp_Chiralities_Consistent>
1

> <s_lp_Variant>
sdf/inactives_sanitized.sdf:638-1

$$$$
sdf/inactives_sanitized.sdf:639
                    3D
 Schrodinger Suite 2020-1.
 64 66  0  0  1  0            999 V2000
    6.9926    0.6787   -3.3053 C   0  0  0  0  0  0
    6.1870    0.1174   -4.3100 C   0  0  0  0  0  0
    6.7341   -0.2266   -5.5430 C   0  0  0  0  0  0
    8.0886   -0.0129   -5.7831 C   0  0  0  0  0  0
    8.9007    0.5430   -4.7986 C   0  0  0  0  0  0
    8.3551    0.8876   -3.5649 C   0  0  0  0  0  0
    6.4339    1.0634   -1.9665 C   0  0  0  0  0  0
    7.1073    1.5782   -1.0695 O   0  0  0  0  0  0
    5.1032    0.7744   -1.8355 O   0  0  0  0  0  0
    4.3367    1.0848   -0.6614 C   0  0  1  0  0  0
    4.0790    2.6057   -0.5114 C   0  0  0  0  0  0
    4.1788    3.3627   -1.4793 O   0  0  0  0  0  0
    3.7420    3.0289    0.7215 N   0  0  0  0  0  0
    3.4054    4.4033    1.0995 C   0  0  0  0  0  0
    0.6264    0.1670    0.2327 C   0  0  0  0  0  0
    0.0889    1.5939    0.4297 C   0  0  0  0  0  0
    2.1522    0.1168    0.3911 C   0  0  2  0  0  0
    2.9907    0.3513   -0.8266 C   0  0  2  0  0  0
    2.8524   -0.9221   -0.2393 O   0  0  0  0  0  0
   -1.4348    1.7065    0.2593 C   0  0  0  0  0  0
   -1.9395    3.1533    0.4075 C   0  0  0  0  0  0
   -3.4612    3.2821    0.2187 C   0  0  0  0  0  0
   -3.9602    4.7317    0.3527 C   0  0  0  0  0  0
   -5.4774    4.8615    0.1621 C   0  0  0  0  0  0
    3.5313    4.6583    2.6210 C   0  0  0  0  0  0
    3.1571    6.0929    3.0432 C   0  0  0  0  0  0
    1.7857    6.5221    2.4970 C   0  0  0  0  0  0
    1.7233    6.3683    0.9692 C   0  0  0  0  0  0
    2.0708    4.9382    0.5130 C   0  0  0  0  0  0
    8.9090   -0.5294   -7.6362 I   0  0  0  0  0  0
    5.1324   -0.0591   -4.1546 H   0  0  0  0  0  0
    6.1072   -0.6569   -6.3100 H   0  0  0  0  0  0
    9.9508    0.7082   -4.9892 H   0  0  0  0  0  0
    9.0055    1.3187   -2.8167 H   0  0  0  0  0  0
    4.8322    0.6983    0.2331 H   0  0  0  0  0  0
    3.6437    2.3376    1.4504 H   0  0  0  0  0  0
    4.1805    5.0342    0.6567 H   0  0  0  0  0  0
    0.3377   -0.2017   -0.7531 H   0  0  0  0  0  0
    0.1685   -0.5110    0.9536 H   0  0  0  0  0  0
    0.3717    1.9553    1.4198 H   0  0  0  0  0  0
    0.5772    2.2549   -0.2884 H   0  0  0  0  0  0
    2.5222    0.4108    1.3741 H   0  0  0  0  0  0
    2.5046    0.4873   -1.7946 H   0  0  0  0  0  0
   -1.7186    1.3234   -0.7222 H   0  0  0  0  0  0
   -1.9306    1.0692    0.9930 H   0  0  0  0  0  0
   -1.6622    3.5347    1.3914 H   0  0  0  0  0  0
   -1.4313    3.7888   -0.3197 H   0  0  0  0  0  0
   -3.7378    2.8941   -0.7631 H   0  0  0  0  0  0
   -3.9713    2.6543    0.9511 H   0  0  0  0  0  0
   -3.6889    5.1238    1.3339 H   0  0  0  0  0  0
   -3.4539    5.3629   -0.3791 H   0  0  0  0  0  0
   -5.7947    5.8995    0.2666 H   0  0  0  0  0  0
   -6.0215    4.2730    0.9018 H   0  0  0  0  0  0
   -5.7826    4.5208   -0.8280 H   0  0  0  0  0  0
    2.8654    3.9730    3.1480 H   0  0  0  0  0  0
    4.5448    4.4367    2.9582 H   0  0  0  0  0  0
    3.1642    6.1723    4.1309 H   0  0  0  0  0  0
    3.9210    6.7847    2.6850 H   0  0  0  0  0  0
    1.0014    5.9204    2.9587 H   0  0  0  0  0  0
    1.5810    7.5567    2.7750 H   0  0  0  0  0  0
    0.7302    6.6399    0.6091 H   0  0  0  0  0  0
    2.4161    7.0726    0.5062 H   0  0  0  0  0  0
    2.0893    4.9068   -0.5771 H   0  0  0  0  0  0
    1.2593    4.2843    0.8336 H   0  0  0  0  0  0
  1  2  2  0  0  0
  1  6  1  0  0  0
  1  7  1  0  0  0
  2  3  1  0  0  0
  2 31  1  0  0  0
  3  4  2  0  0  0
  3 32  1  0  0  0
  4  5  1  0  0  0
  4 30  1  0  0  0
  5  6  2  0  0  0
  5 33  1  0  0  0
  6 34  1  0  0  0
  7  8  2  0  0  0
  7  9  1  0  0  0
  9 10  1  0  0  0
 10 18  1  0  0  0
 10 11  1  0  0  0
 10 35  1  0  0  0
 11 12  2  0  0  0
 11 13  1  0  0  0
 13 14  1  0  0  0
 13 36  1  0  0  0
 14 25  1  0  0  0
 14 29  1  0  0  0
 14 37  1  0  0  0
 15 17  1  0  0  0
 15 16  1  0  0  0
 15 38  1  0  0  0
 15 39  1  0  0  0
 16 20  1  0  0  0
 16 40  1  0  0  0
 16 41  1  0  0  0
 17 18  1  0  0  0
 17 19  1  0  0  0
 17 42  1  0  0  0
 18 19  1  0  0  0
 18 43  1  0  0  0
 20 21  1  0  0  0
 20 44  1  0  0  0
 20 45  1  0  0  0
 21 22  1  0  0  0
 21 46  1  0  0  0
 21 47  1  0  0  0
 22 23  1  0  0  0
 22 48  1  0  0  0
 22 49  1  0  0  0
 23 24  1  0  0  0
 23 50  1  0  0  0
 23 51  1  0  0  0
 24 52  1  0  0  0
 24 53  1  0  0  0
 24 54  1  0  0  0
 25 26  1  0  0  0
 25 55  1  0  0  0
 25 56  1  0  0  0
 26 27  1  0  0  0
 26 57  1  0  0  0
 26 58  1  0  0  0
 27 28  1  0  0  0
 27 59  1  0  0  0
 27 60  1  0  0  0
 28 29  1  0  0  0
 28 61  1  0  0  0
 28 62  1  0  0  0
 29 63  1  0  0  0
 29 64  1  0  0  0
M  END
> <chembl_id>
CHEMBL4065603

> <chembl_pref_name>
None

> <i_m_ct_stereo_status>
1

> <s_m_source_file>
sdf/inactives_sanitized.sdf

> <i_m_source_file_index>
639

> <i_lp_mmshare_version>
49012

> <i_f3d_flags>
0

> <s_epik_input>
W2NIXTFbY0hdYyhJKVtjSF1bY0hdYzFDKD1PKU9bQ0BASF0oQyg9TylbTkhdW0NIXTJbQ0gyXVtDSDJdW0NIMl1bQ0gyXVtDSDJdMilbQ0BASF0oTzMpW0NASF0zW0NIMl1bQ0gyXVtDSDJdW0NIMl1bQ0gyXVtDSDJdW0NIM10=

> <s_epik_cmdline>
J2VwaWtfcHl0aG9uJywgJy1waHQnLCAnMC41JywgJy1waCcsICc3LjUnLCAnLW50JywgJy1tYScsICcyMDAnLCAnLWltYWUnLCAnPGluZmlsZS5tYWU+JywgJy1vbWFlJywgJzxvdXRmaWxlLm1hZT4n

> <r_lp_tautomer_probability>
1

> <r_epik_Ionization_Penalty>
  0.0000

> <r_epik_Ionization_Penalty_Charging>
  0.0000

> <r_epik_Ionization_Penalty_Neutral>
  0.0000

> <r_epik_State_Penalty>
 -0.0000

> <r_epik_Charging_Adjusted_Penalty>
0

> <i_epik_Tot_Q>
0

> <i_epik_Tot_abs_Q>
0

> <s_epik_Chemistry_Notes>
This compound has an ester and may undergo hydrolysis at high or low pH.

> <s_lp_Force_Field>
OPLS3e

> <r_lp_Energy>
24.439539

> <b_lp_Chiralities_Consistent>
1

> <s_lp_Variant>
sdf/inactives_sanitized.sdf:639-1

$$$$
sdf/inactives_sanitized.sdf:640
                    3D
 Schrodinger Suite 2020-1.
 77 81  0  0  1  0            999 V2000
   -2.2186   -0.9588    4.3373 C   0  0  0  0  0  0
   -1.9017   -0.7152    2.8559 C   0  0  0  0  0  0
   -0.3862   -0.7097    2.5617 C   0  0  0  0  0  0
   -0.0082   -0.5837    1.0621 C   0  0  2  0  0  0
    1.4439   -0.7560    0.8566 N   0  0  0  0  0  0
    2.1055   -0.8189   -0.3160 C   0  0  0  0  0  0
    1.5390   -0.7694   -1.4099 O   0  0  0  0  0  0
    3.6467   -0.8050   -0.2236 C   0  0  2  0  0  0
    4.2429    0.5463   -0.6282 C   0  0  0  0  0  0
    4.5198    0.4268   -2.1210 C   0  0  2  0  0  0
    4.6888   -1.0674   -2.4247 C   0  0  0  0  0  0
    4.2553   -1.7400   -1.1885 N   0  0  0  0  0  0
    4.6544   -2.9928   -0.8418 C   0  0  0  0  0  0
    4.4675   -3.4335    0.2958 O   0  0  0  0  0  0
    5.3270   -3.9021   -1.9164 C   0  0  0  0  0  0
    6.8445   -3.9620   -1.7115 C   0  0  0  0  0  0
    6.0071   -5.1477   -1.3402 C   0  0  0  0  0  0
    4.6943   -4.0171   -3.3191 C   0  0  0  0  0  0
    5.5661   -4.1695   -4.3556 N   0  0  0  0  0  0
    5.0700   -4.2783   -5.6136 C   0  0  0  0  0  0
    3.7036   -4.2548   -5.8902 C   0  0  0  0  0  0
    3.1295   -4.3958   -7.5112 Cl  0  0  0  0  0  0
    2.8111   -4.1202   -4.8265 C   0  0  0  0  0  0
    3.3026   -4.0061   -3.5247 C   0  0  0  0  0  0
    2.4328   -3.9006   -2.4940 F   0  0  0  0  0  0
    6.0172    1.4431   -2.6938 S   0  0  0  0  0  0
    7.1846    1.0006   -1.9214 O   0  0  0  0  0  0
    6.0820    1.3997   -4.1577 O   0  0  0  0  0  0
    5.6384    3.1396   -2.1739 C   0  0  0  0  0  0
    6.1378    3.5217   -0.9203 C   0  0  0  0  0  0
    5.9450    4.8083   -0.4284 C   0  0  0  0  0  0
    5.2484    5.7398   -1.1870 C   0  0  0  0  0  0
    4.7317    5.3760   -2.4267 C   0  0  0  0  0  0
    4.8962    4.0776   -2.9379 C   0  0  0  0  0  0
    4.2736    3.7658   -4.3086 C   0  0  0  0  0  0
    3.3745    4.6831   -4.6729 F   0  0  0  0  0  0
    5.2269    3.7510   -5.2398 F   0  0  0  0  0  0
    3.6362    2.5975   -4.3080 F   0  0  0  0  0  0
   -0.5021    0.7321    0.4413 C   0  0  0  0  0  0
   -1.4947    0.7783   -0.2895 O   0  0  0  0  0  0
    0.3134    2.0566    0.7677 C   0  0  0  0  0  0
    1.0403    2.1430    1.7589 O   0  0  0  0  0  0
    0.1284    3.0083   -0.1647 N   0  0  0  0  0  0
    0.6937    4.3517   -0.0984 C   0  0  0  0  0  0
    1.4448    4.8731   -1.3016 C   0  0  0  0  0  0
    2.1967    4.5318   -0.0389 C   0  0  0  0  0  0
   -3.2950   -0.9521    4.5112 H   0  0  0  0  0  0
   -1.7769   -0.1870    4.9684 H   0  0  0  0  0  0
   -1.8360   -1.9240    4.6708 H   0  0  0  0  0  0
   -2.3893   -1.4854    2.2569 H   0  0  0  0  0  0
   -2.3447    0.2356    2.5571 H   0  0  0  0  0  0
    0.0943    0.0809    3.1402 H   0  0  0  0  0  0
    0.0417   -1.6388    2.9429 H   0  0  0  0  0  0
   -0.4823   -1.4229    0.5477 H   0  0  0  0  0  0
    1.9854   -0.7956    1.7081 H   0  0  0  0  0  0
    3.8913   -1.0688    0.8073 H   0  0  0  0  0  0
    3.6325    1.4069   -0.3496 H   0  0  0  0  0  0
    5.1759    0.6711   -0.0769 H   0  0  0  0  0  0
    3.6713    0.8149   -2.6824 H   0  0  0  0  0  0
    4.0786   -1.3039   -3.2967 H   0  0  0  0  0  0
    5.7476   -1.2501   -2.6138 H   0  0  0  0  0  0
    7.5035   -4.0371   -2.5764 H   0  0  0  0  0  0
    7.3088   -3.3789   -0.9142 H   0  0  0  0  0  0
    6.0593   -6.0403   -1.9643 H   0  0  0  0  0  0
    5.9095   -5.4097   -0.2860 H   0  0  0  0  0  0
    5.7943   -4.3869   -6.4074 H   0  0  0  0  0  0
    1.7459   -4.1095   -5.0057 H   0  0  0  0  0  0
    6.6907    2.8220   -0.3113 H   0  0  0  0  0  0
    6.3419    5.0838    0.5376 H   0  0  0  0  0  0
    5.1017    6.7424   -0.8128 H   0  0  0  0  0  0
    4.1906    6.1254   -2.9855 H   0  0  0  0  0  0
   -0.5304    2.8295   -0.9092 H   0  0  0  0  0  0
    0.0789    5.0523    0.4682 H   0  0  0  0  0  0
    1.5576    4.2271   -2.1730 H   0  0  0  0  0  0
    1.3195    5.9206   -1.5761 H   0  0  0  0  0  0
    2.8377    3.6503   -0.0294 H   0  0  0  0  0  0
    2.5950    5.3379    0.5774 H   0  0  0  0  0  0
  1  2  1  0  0  0
  1 47  1  0  0  0
  1 48  1  0  0  0
  1 49  1  0  0  0
  2  3  1  0  0  0
  2 50  1  0  0  0
  2 51  1  0  0  0
  3  4  1  0  0  0
  3 52  1  0  0  0
  3 53  1  0  0  0
  4  5  1  0  0  0
  4 39  1  0  0  0
  4 54  1  0  0  0
  5  6  1  0  0  0
  5 55  1  0  0  0
  6  7  2  0  0  0
  6  8  1  0  0  0
  8  9  1  0  0  0
  8 12  1  0  0  0
  8 56  1  0  0  0
  9 10  1  0  0  0
  9 57  1  0  0  0
  9 58  1  0  0  0
 10 11  1  0  0  0
 10 26  1  0  0  0
 10 59  1  0  0  0
 11 12  1  0  0  0
 11 60  1  0  0  0
 11 61  1  0  0  0
 12 13  1  0  0  0
 13 14  2  0  0  0
 13 15  1  0  0  0
 15 16  1  0  0  0
 15 17  1  0  0  0
 15 18  1  0  0  0
 16 17  1  0  0  0
 16 62  1  0  0  0
 16 63  1  0  0  0
 17 64  1  0  0  0
 17 65  1  0  0  0
 18 19  2  0  0  0
 18 24  1  0  0  0
 19 20  1  0  0  0
 20 21  2  0  0  0
 20 66  1  0  0  0
 21 22  1  0  0  0
 21 23  1  0  0  0
 23 24  2  0  0  0
 23 67  1  0  0  0
 24 25  1  0  0  0
 26 27  2  0  0  0
 26 28  2  0  0  0
 26 29  1  0  0  0
 29 30  2  0  0  0
 29 34  1  0  0  0
 30 31  1  0  0  0
 30 68  1  0  0  0
 31 32  2  0  0  0
 31 69  1  0  0  0
 32 33  1  0  0  0
 32 70  1  0  0  0
 33 34  2  0  0  0
 33 71  1  0  0  0
 34 35  1  0  0  0
 35 36  1  0  0  0
 35 37  1  0  0  0
 35 38  1  0  0  0
 39 40  2  0  0  0
 39 41  1  0  0  0
 41 42  2  0  0  0
 41 43  1  0  0  0
 43 44  1  0  0  0
 43 72  1  0  0  0
 44 45  1  0  0  0
 44 46  1  0  0  0
 44 73  1  0  0  0
 45 46  1  0  0  0
 45 74  1  0  0  0
 45 75  1  0  0  0
 46 76  1  0  0  0
 46 77  1  0  0  0
M  END
> <chembl_id>
CHEMBL3649381

> <chembl_pref_name>
None

> <i_m_ct_stereo_status>
1

> <s_m_source_file>
sdf/inactives_sanitized.sdf

> <i_m_source_file_index>
640

> <i_lp_mmshare_version>
49012

> <i_f3d_flags>
0

> <s_epik_input>
W0NIMl0xW0NIMl1bQ0hdMVtOSF1DKD1PKUMoPU8pW0NASF0oW0NIMl1bQ0gyXVtDSDNdKVtOSF1DKD1PKVtDQEBIXTJbQ0gyXVtDQEBIXShTKD1PKSg9TyljM1tjSF1bY0hdW2NIXVtjSF1jM0MoRikoRilGKVtDSDJdTjJDKD1PKUM0KFtDSDJdW0NIMl00KWM1bltjSF1jKENsKVtjSF1jNUY=

> <s_epik_cmdline>
J2VwaWtfcHl0aG9uJywgJy1waHQnLCAnMC41JywgJy1waCcsICc3LjUnLCAnLW50JywgJy1tYScsICcyMDAnLCAnLWltYWUnLCAnPGluZmlsZS5tYWU+JywgJy1vbWFlJywgJzxvdXRmaWxlLm1hZT4n

> <r_lp_tautomer_probability>
1

> <r_epik_Ionization_Penalty>
  0.0000

> <r_epik_Ionization_Penalty_Charging>
  0.0000

> <r_epik_Ionization_Penalty_Neutral>
  0.0000

> <r_epik_State_Penalty>
 -0.0000

> <r_epik_Charging_Adjusted_Penalty>
0

> <i_epik_Tot_Q>
0

> <i_epik_Tot_abs_Q>
0

> <s_lp_Force_Field>
OPLS3e

> <r_lp_Energy>
55.051852

> <b_lp_Chiralities_Consistent>
1

> <s_lp_Variant>
sdf/inactives_sanitized.sdf:640-1

$$$$
sdf/inactives_sanitized.sdf:641
                    3D
 Schrodinger Suite 2020-1.
 72 76  0  0  1  0            999 V2000
   -0.6397   -0.6396   -1.5660 C   0  0  0  0  0  0
   -0.2657   -0.2440   -0.1097 C   0  0  0  0  0  0
   -0.8775   -1.2382    0.9188 C   0  0  0  0  0  0
    1.2030   -0.2144    0.0344 N   0  0  0  0  0  0
    2.1133   -1.2006   -0.1079 C   0  0  0  0  0  0
    1.8269   -2.3592   -0.4069 O   0  0  0  0  0  0
    3.5996   -0.8034    0.0739 C   0  0  2  0  0  0
    3.9436   -0.4988    1.5370 C   0  0  0  0  0  0
    3.7902    1.0088    1.6643 C   0  0  2  0  0  0
    4.1109    1.5813    0.2831 C   0  0  0  0  0  0
    3.9500    0.4487   -0.6404 N   0  0  0  0  0  0
    4.1085    0.5135   -1.9926 C   0  0  0  0  0  0
    3.9518   -0.4935   -2.6890 O   0  0  0  0  0  0
    4.4599    1.8648   -2.6964 C   0  0  0  0  0  0
    4.3173    1.8446   -4.2178 C   0  0  0  0  0  0
    3.2260    2.4525   -3.3823 C   0  0  0  0  0  0
    5.5237    2.7756   -2.0738 C   0  0  0  0  0  0
    5.2154    4.0780   -1.6628 C   0  0  0  0  0  0
    6.1945    4.8759   -1.0782 C   0  0  0  0  0  0
    7.4805    4.3720   -0.8957 C   0  0  0  0  0  0
    8.6872    5.3555   -0.1508 Cl  0  0  0  0  0  0
    7.7975    3.0782   -1.3038 C   0  0  0  0  0  0
    6.8205    2.2826   -1.8953 C   0  0  0  0  0  0
    4.8734    1.7431    3.0369 S   0  0  0  0  0  0
    4.3004    1.3776    4.3371 O   0  0  0  0  0  0
    6.2718    1.4106    2.7396 O   0  0  0  0  0  0
    4.6860    3.5265    2.8496 C   0  0  0  0  0  0
    5.7977    4.2809    2.4521 C   0  0  0  0  0  0
    5.6993    5.6625    2.2970 C   0  0  0  0  0  0
    4.4862    6.3049    2.5303 C   0  0  0  0  0  0
    3.3721    5.5646    2.9209 C   0  0  0  0  0  0
    3.4614    4.1801    3.0832 C   0  0  0  0  0  0
    2.0336    3.3332    3.5718 Cl  0  0  0  0  0  0
   -0.7377    1.2250    0.1890 C   0  0  0  0  0  0
    0.0488    2.1594    0.3989 O   0  0  0  0  0  0
   -2.3084    1.4909    0.2524 C   0  0  0  0  0  0
   -3.1263    0.6898   -0.1990 O   0  0  0  0  0  0
   -2.5919    2.6708    0.8437 N   0  0  0  0  0  0
   -3.8993    3.2935    1.0939 C   0  0  0  0  0  0
   -5.1116    2.4586    1.4574 C   0  0  0  0  0  0
   -5.0438    3.1418    0.1108 C   0  0  0  0  0  0
   -1.7150   -0.7052   -1.7250 H   0  0  0  0  0  0
   -0.2410   -1.6184   -1.8329 H   0  0  0  0  0  0
   -0.2440    0.0724   -2.2924 H   0  0  0  0  0  0
   -1.9604   -1.3213    0.8339 H   0  0  0  0  0  0
   -0.6504   -0.9471    1.9458 H   0  0  0  0  0  0
   -0.4930   -2.2489    0.7823 H   0  0  0  0  0  0
    1.5703    0.6976    0.2644 H   0  0  0  0  0  0
    4.1768   -1.6432   -0.3175 H   0  0  0  0  0  0
    3.3740   -1.0741    2.2693 H   0  0  0  0  0  0
    4.9831   -0.7853    1.7043 H   0  0  0  0  0  0
    2.7655    1.2486    1.9444 H   0  0  0  0  0  0
    3.4748    2.4389    0.0606 H   0  0  0  0  0  0
    5.1566    1.8869    0.2957 H   0  0  0  0  0  0
    4.9606    2.5043   -4.8011 H   0  0  0  0  0  0
    4.1113    0.9182   -4.7557 H   0  0  0  0  0  0
    3.0869    3.5317   -3.4333 H   0  0  0  0  0  0
    2.2669    1.9350   -3.3156 H   0  0  0  0  0  0
    4.2186    4.4762   -1.7746 H   0  0  0  0  0  0
    5.9508    5.8784   -0.7579 H   0  0  0  0  0  0
    8.7948    2.6890   -1.1601 H   0  0  0  0  0  0
    7.0688    1.2781   -2.2060 H   0  0  0  0  0  0
    6.7488    3.8064    2.2596 H   0  0  0  0  0  0
    6.5640    6.2340    1.9928 H   0  0  0  0  0  0
    4.4093    7.3755    2.4098 H   0  0  0  0  0  0
    2.4348    6.0709    3.1009 H   0  0  0  0  0  0
   -1.8015    3.2145    1.1602 H   0  0  0  0  0  0
   -3.8010    4.2599    1.5893 H   0  0  0  0  0  0
   -5.0193    1.3739    1.5138 H   0  0  0  0  0  0
   -5.7942    2.8483    2.2126 H   0  0  0  0  0  0
   -4.9040    2.5416   -0.7883 H   0  0  0  0  0  0
   -5.6788    4.0083   -0.0740 H   0  0  0  0  0  0
  1  2  1  0  0  0
  1 42  1  0  0  0
  1 43  1  0  0  0
  1 44  1  0  0  0
  2  3  1  0  0  0
  2  4  1  0  0  0
  2 34  1  0  0  0
  3 45  1  0  0  0
  3 46  1  0  0  0
  3 47  1  0  0  0
  4  5  1  0  0  0
  4 48  1  0  0  0
  5  6  2  0  0  0
  5  7  1  0  0  0
  7  8  1  0  0  0
  7 11  1  0  0  0
  7 49  1  0  0  0
  8  9  1  0  0  0
  8 50  1  0  0  0
  8 51  1  0  0  0
  9 10  1  0  0  0
  9 24  1  0  0  0
  9 52  1  0  0  0
 10 11  1  0  0  0
 10 53  1  0  0  0
 10 54  1  0  0  0
 11 12  1  0  0  0
 12 13  2  0  0  0
 12 14  1  0  0  0
 14 15  1  0  0  0
 14 16  1  0  0  0
 14 17  1  0  0  0
 15 16  1  0  0  0
 15 55  1  0  0  0
 15 56  1  0  0  0
 16 57  1  0  0  0
 16 58  1  0  0  0
 17 18  2  0  0  0
 17 23  1  0  0  0
 18 19  1  0  0  0
 18 59  1  0  0  0
 19 20  2  0  0  0
 19 60  1  0  0  0
 20 21  1  0  0  0
 20 22  1  0  0  0
 22 23  2  0  0  0
 22 61  1  0  0  0
 23 62  1  0  0  0
 24 25  2  0  0  0
 24 26  2  0  0  0
 24 27  1  0  0  0
 27 28  2  0  0  0
 27 32  1  0  0  0
 28 29  1  0  0  0
 28 63  1  0  0  0
 29 30  2  0  0  0
 29 64  1  0  0  0
 30 31  1  0  0  0
 30 65  1  0  0  0
 31 32  2  0  0  0
 31 66  1  0  0  0
 32 33  1  0  0  0
 34 35  2  0  0  0
 34 36  1  0  0  0
 36 37  2  0  0  0
 36 38  1  0  0  0
 38 39  1  0  0  0
 38 67  1  0  0  0
 39 40  1  0  0  0
 39 41  1  0  0  0
 39 68  1  0  0  0
 40 41  1  0  0  0
 40 69  1  0  0  0
 40 70  1  0  0  0
 41 71  1  0  0  0
 41 72  1  0  0  0
M  END
> <chembl_id>
CHEMBL3649387

> <chembl_pref_name>
None

> <i_m_ct_stereo_status>
1

> <s_m_source_file>
sdf/inactives_sanitized.sdf

> <i_m_source_file_index>
641

> <i_lp_mmshare_version>
49012

> <i_f3d_flags>
0

> <s_epik_input>
W0NIMl0xW0NIMl1bQ0hdMVtOSF1DKD1PKUMoPU8pQyhbQ0gzXSkoW0NIM10pW05IXUMoPU8pW0NAQEhdMltDSDJdW0NAQEhdKFMoPU8pKD1PKWMzW2NIXVtjSF1bY0hdW2NIXWMzQ2wpW0NIMl1OMkMoPU8pQzQoW0NIMl1bQ0gyXTQpYzVbY0hdW2NIXWMoQ2wpW2NIXVtjSF01

> <s_epik_cmdline>
J2VwaWtfcHl0aG9uJywgJy1waHQnLCAnMC41JywgJy1waCcsICc3LjUnLCAnLW50JywgJy1tYScsICcyMDAnLCAnLWltYWUnLCAnPGluZmlsZS5tYWU+JywgJy1vbWFlJywgJzxvdXRmaWxlLm1hZT4n

> <r_lp_tautomer_probability>
1

> <r_epik_Ionization_Penalty>
  0.0000

> <r_epik_Ionization_Penalty_Charging>
  0.0000

> <r_epik_Ionization_Penalty_Neutral>
  0.0000

> <r_epik_State_Penalty>
 -0.0000

> <r_epik_Charging_Adjusted_Penalty>
0

> <i_epik_Tot_Q>
0

> <i_epik_Tot_abs_Q>
0

> <s_lp_Force_Field>
OPLS3e

> <r_lp_Energy>
47.622218

> <b_lp_Chiralities_Consistent>
1

> <s_lp_Variant>
sdf/inactives_sanitized.sdf:641-1

$$$$
sdf/inactives_sanitized.sdf:642
                    3D
 Schrodinger Suite 2020-1.
 48 49  0  0  1  0            999 V2000
   -1.6286   -1.0181   -5.4587 C   0  0  0  0  0  0
   -0.5709   -0.5356   -6.2253 C   0  0  0  0  0  0
    0.7213   -0.5017   -5.7077 C   0  0  0  0  0  0
    0.9560   -0.9552   -4.4126 C   0  0  0  0  0  0
   -0.0939   -1.4412   -3.6310 C   0  0  0  0  0  0
   -1.3933   -1.4706   -4.1629 C   0  0  0  0  0  0
    0.2372   -1.8692   -2.3615 O   0  0  0  0  0  0
   -0.7818   -2.3396   -1.4837 C   0  0  0  0  0  0
   -0.1572   -2.7048   -0.1256 C   0  0  0  0  0  0
    0.3729   -1.5495    0.6062 N   0  0  0  0  0  0
    1.7110   -1.1251    0.4155 C   0  0  0  0  0  0
   -0.4758   -0.8870    1.4199 C   0  0  0  0  0  0
   -1.2457   -0.3529    2.0992 N   0  0  0  0  0  0
    2.1244   -0.0137    1.0863 N   0  0  0  0  0  0
    3.4054    0.4008    0.8674 C   0  0  0  0  0  0
    4.2592   -0.2436    0.0222 N   0  0  0  0  0  0
    3.7687   -1.3460   -0.6038 C   0  0  0  0  0  0
    2.5153   -1.8274   -0.4314 N   0  0  0  0  0  0
    4.5734   -2.0655   -1.4999 N   0  0  0  0  0  0
    5.9382   -1.6712   -1.8434 C   0  0  0  0  0  0
    5.9652   -0.4885   -2.8305 C   0  0  0  0  0  0
    6.7305   -2.8684   -2.3920 C   0  0  0  0  0  0
    3.8685    1.5602    1.5451 N   0  0  0  0  0  0
    5.2811    1.9369    1.4798 C   0  0  0  0  0  0
    3.0552    2.1731    2.5960 C   0  0  0  0  0  0
   -2.6280   -1.0419   -5.8677 H   0  0  0  0  0  0
   -0.7543   -0.1850   -7.2304 H   0  0  0  0  0  0
    1.5374   -0.1264   -6.3072 H   0  0  0  0  0  0
    1.9590   -0.9293   -4.0115 H   0  0  0  0  0  0
   -2.2280   -1.8418   -3.5880 H   0  0  0  0  0  0
   -1.5723   -1.5988   -1.3472 H   0  0  0  0  0  0
   -1.2461   -3.2304   -1.9103 H   0  0  0  0  0  0
   -0.9425   -3.1438    0.4920 H   0  0  0  0  0  0
    0.5749   -3.5056   -0.2386 H   0  0  0  0  0  0
    4.1857   -2.8836   -1.9466 H   0  0  0  0  0  0
    6.4351   -1.3512   -0.9260 H   0  0  0  0  0  0
    6.9887   -0.1919   -3.0616 H   0  0  0  0  0  0
    5.4625    0.3885   -2.4214 H   0  0  0  0  0  0
    5.4724   -0.7410   -3.7705 H   0  0  0  0  0  0
    7.7633   -2.5926   -2.6071 H   0  0  0  0  0  0
    6.2908   -3.2534   -3.3131 H   0  0  0  0  0  0
    6.7586   -3.6870   -1.6716 H   0  0  0  0  0  0
    5.8777    1.2520    2.0831 H   0  0  0  0  0  0
    5.4446    2.9505    1.8479 H   0  0  0  0  0  0
    5.6602    1.8875    0.4584 H   0  0  0  0  0  0
    2.0135    2.2721    2.2880 H   0  0  0  0  0  0
    3.4205    3.1660    2.8599 H   0  0  0  0  0  0
    3.0733    1.5511    3.4915 H   0  0  0  0  0  0
  1  2  2  0  0  0
  1  6  1  0  0  0
  1 26  1  0  0  0
  2  3  1  0  0  0
  2 27  1  0  0  0
  3  4  2  0  0  0
  3 28  1  0  0  0
  4  5  1  0  0  0
  4 29  1  0  0  0
  5  6  2  0  0  0
  5  7  1  0  0  0
  6 30  1  0  0  0
  7  8  1  0  0  0
  8  9  1  0  0  0
  8 31  1  0  0  0
  8 32  1  0  0  0
  9 10  1  0  0  0
  9 33  1  0  0  0
  9 34  1  0  0  0
 10 11  1  0  0  0
 10 12  1  0  0  0
 11 14  2  0  0  0
 11 18  1  0  0  0
 12 13  3  0  0  0
 14 15  1  0  0  0
 15 16  2  0  0  0
 15 23  1  0  0  0
 16 17  1  0  0  0
 17 18  2  0  0  0
 17 19  1  0  0  0
 19 20  1  0  0  0
 19 35  1  0  0  0
 20 21  1  0  0  0
 20 22  1  0  0  0
 20 36  1  0  0  0
 21 37  1  0  0  0
 21 38  1  0  0  0
 21 39  1  0  0  0
 22 40  1  0  0  0
 22 41  1  0  0  0
 22 42  1  0  0  0
 23 24  1  0  0  0
 23 25  1  0  0  0
 24 43  1  0  0  0
 24 44  1  0  0  0
 24 45  1  0  0  0
 25 46  1  0  0  0
 25 47  1  0  0  0
 25 48  1  0  0  0
M  END
> <chembl_id>
CHEMBL2316608

> <chembl_pref_name>
None

> <s_m_source_file>
sdf/inactives_sanitized.sdf

> <i_m_source_file_index>
642

> <i_lp_mmshare_version>
49012

> <i_m_ct_stereo_status>
1

> <i_f3d_flags>
0

> <s_epik_input>
W2NIXTFbY0hdW2NIXVtjSF1bY0hdYzFPW0NIMl1bQ0gyXU4oQyNOKWMybmMoTihbQ0gzXSlbQ0gzXSluYyhuMilbTkhdW0NIXShbQ0gzXSlbQ0gzXQ==

> <s_epik_cmdline>
J2VwaWtfcHl0aG9uJywgJy1waHQnLCAnMC41JywgJy1waCcsICc3LjUnLCAnLW50JywgJy1tYScsICcyMDAnLCAnLWltYWUnLCAnPGluZmlsZS5tYWU+JywgJy1vbWFlJywgJzxvdXRmaWxlLm1hZT4n

> <r_lp_tautomer_probability>
0.999999999992582

> <r_epik_Ionization_Penalty>
  0.0142

> <r_epik_Ionization_Penalty_Charging>
  0.0000

> <r_epik_Ionization_Penalty_Neutral>
  0.0142

> <r_epik_State_Penalty>
  0.0110

> <r_epik_Charging_Adjusted_Penalty>
0.0109803197826634

> <i_epik_Tot_Q>
0

> <i_epik_Tot_abs_Q>
0

> <s_lp_Force_Field>
OPLS3e

> <r_lp_Energy>
18.263762

> <b_lp_Chiralities_Consistent>
1

> <s_lp_Variant>
sdf/inactives_sanitized.sdf:642-1

$$$$
sdf/inactives_sanitized.sdf:643
                    3D
 Schrodinger Suite 2020-1.
 77 81  0  0  1  0            999 V2000
   -2.5658   -3.5127    0.3764 C   0  0  0  0  0  0
   -2.2789   -2.1031   -0.1843 C   0  0  0  0  0  0
   -2.6879   -1.9718   -1.6675 C   0  0  0  0  0  0
   -0.8052   -1.6955    0.0654 C   0  0  0  0  0  0
   -0.4424   -0.2368   -0.3240 C   0  0  2  0  0  0
    1.0011   -0.0359   -0.1228 N   0  0  0  0  0  0
    1.7531    0.9107   -0.7169 C   0  0  0  0  0  0
    1.2844    1.7441   -1.4950 O   0  0  0  0  0  0
    3.2346    0.9834   -0.2862 C   0  0  2  0  0  0
    3.5668    2.2643    0.4876 C   0  0  0  0  0  0
    4.0314    3.2570   -0.5700 C   0  0  2  0  0  0
    4.6003    2.4256   -1.7229 C   0  0  0  0  0  0
    4.1328    1.0577   -1.4531 N   0  0  0  0  0  0
    4.6134   -0.0408   -2.0921 C   0  0  0  0  0  0
    4.2614   -1.1828   -1.7859 O   0  0  0  0  0  0
    5.6299    0.1485   -3.2558 C   0  0  0  0  0  0
    5.3222   -0.7601   -4.4477 C   0  0  0  0  0  0
    4.9422    0.6916   -4.5091 C   0  0  0  0  0  0
    7.1059    0.4925   -2.9239 C   0  0  0  0  0  0
    7.4392    0.5077   -1.5991 N   0  0  0  0  0  0
    8.7090    0.8183   -1.2395 C   0  0  0  0  0  0
    9.7016    1.1163   -2.1701 C   0  0  0  0  0  0
   11.3013    1.5109   -1.6584 Cl  0  0  0  0  0  0
    9.3722    1.0889   -3.5244 C   0  0  0  0  0  0
    8.0682    0.7744   -3.9137 C   0  0  0  0  0  0
    7.7725    0.7484   -5.2328 F   0  0  0  0  0  0
    5.2494    4.5393    0.1169 S   0  0  0  0  0  0
    4.5670    5.2675    1.1931 O   0  0  0  0  0  0
    6.5311    3.8828    0.3969 O   0  0  0  0  0  0
    5.4734    5.7002   -1.2513 C   0  0  0  0  0  0
    4.6231    6.8136   -1.2916 C   0  0  0  0  0  0
    4.7205    7.7520   -2.3170 C   0  0  0  0  0  0
    5.6706    7.5881   -3.3206 C   0  0  0  0  0  0
    6.5212    6.4853   -3.2964 C   0  0  0  0  0  0
    6.4331    5.5385   -2.2725 C   0  0  0  0  0  0
    7.5382    4.2096   -2.3368 Cl  0  0  0  0  0  0
   -1.1480    0.7861    0.5694 C   0  0  0  0  0  0
   -0.9949    0.8378    1.7945 O   0  0  0  0  0  0
   -2.0903    1.8189   -0.1759 C   0  0  0  0  0  0
   -2.4214    1.6650   -1.3526 O   0  0  0  0  0  0
   -2.4492    2.8445    0.6173 N   0  0  0  0  0  0
   -3.3769    3.9001    0.2265 C   0  0  0  0  0  0
   -3.0023    4.8368   -0.9036 C   0  0  0  0  0  0
   -3.0007    5.3331    0.5219 C   0  0  0  0  0  0
   -2.7778   -4.2413   -0.4060 H   0  0  0  0  0  0
   -3.4265   -3.4947    1.0454 H   0  0  0  0  0  0
   -1.7248   -3.9049    0.9487 H   0  0  0  0  0  0
   -2.9103   -1.4188    0.3839 H   0  0  0  0  0  0
   -1.8223   -1.8991   -2.3263 H   0  0  0  0  0  0
   -3.2902   -1.0760   -1.8209 H   0  0  0  0  0  0
   -3.2832   -2.8150   -2.0171 H   0  0  0  0  0  0
   -0.5629   -1.8636    1.1172 H   0  0  0  0  0  0
   -0.1703   -2.3822   -0.4977 H   0  0  0  0  0  0
   -0.6486   -0.1079   -1.3883 H   0  0  0  0  0  0
    1.4466   -0.6903    0.5041 H   0  0  0  0  0  0
    3.4288    0.0812    0.2976 H   0  0  0  0  0  0
    2.7587    2.6298    1.1240 H   0  0  0  0  0  0
    4.3847    2.0386    1.1739 H   0  0  0  0  0  0
    3.1796    3.8434   -0.9166 H   0  0  0  0  0  0
    4.2823    2.8313   -2.6838 H   0  0  0  0  0  0
    5.6840    2.4537   -1.6441 H   0  0  0  0  0  0
    6.1478   -1.1226   -5.0597 H   0  0  0  0  0  0
    4.5250   -1.5027   -4.3871 H   0  0  0  0  0  0
    5.4868    1.3681   -5.1659 H   0  0  0  0  0  0
    3.8824    0.9517   -4.4788 H   0  0  0  0  0  0
    8.9199    0.8285   -0.1802 H   0  0  0  0  0  0
   10.1203    1.3114   -4.2710 H   0  0  0  0  0  0
    3.8730    6.9598   -0.5283 H   0  0  0  0  0  0
    4.0585    8.6053   -2.3338 H   0  0  0  0  0  0
    5.7478    8.3143   -4.1163 H   0  0  0  0  0  0
    7.2555    6.3666   -4.0800 H   0  0  0  0  0  0
   -2.1588    2.8285    1.5844 H   0  0  0  0  0  0
   -4.4254    3.6124    0.3156 H   0  0  0  0  0  0
   -2.0510    4.6892   -1.4160 H   0  0  0  0  0  0
   -3.7903    5.1652   -1.5814 H   0  0  0  0  0  0
   -2.0472    5.5360    1.0108 H   0  0  0  0  0  0
   -3.7860    6.0160    0.8468 H   0  0  0  0  0  0
  1  2  1  0  0  0
  1 45  1  0  0  0
  1 46  1  0  0  0
  1 47  1  0  0  0
  2  3  1  0  0  0
  2  4  1  0  0  0
  2 48  1  0  0  0
  3 49  1  0  0  0
  3 50  1  0  0  0
  3 51  1  0  0  0
  4  5  1  0  0  0
  4 52  1  0  0  0
  4 53  1  0  0  0
  5  6  1  0  0  0
  5 37  1  0  0  0
  5 54  1  0  0  0
  6  7  1  0  0  0
  6 55  1  0  0  0
  7  8  2  0  0  0
  7  9  1  0  0  0
  9 10  1  0  0  0
  9 13  1  0  0  0
  9 56  1  0  0  0
 10 11  1  0  0  0
 10 57  1  0  0  0
 10 58  1  0  0  0
 11 12  1  0  0  0
 11 27  1  0  0  0
 11 59  1  0  0  0
 12 13  1  0  0  0
 12 60  1  0  0  0
 12 61  1  0  0  0
 13 14  1  0  0  0
 14 15  2  0  0  0
 14 16  1  0  0  0
 16 17  1  0  0  0
 16 18  1  0  0  0
 16 19  1  0  0  0
 17 18  1  0  0  0
 17 62  1  0  0  0
 17 63  1  0  0  0
 18 64  1  0  0  0
 18 65  1  0  0  0
 19 20  2  0  0  0
 19 25  1  0  0  0
 20 21  1  0  0  0
 21 22  2  0  0  0
 21 66  1  0  0  0
 22 23  1  0  0  0
 22 24  1  0  0  0
 24 25  2  0  0  0
 24 67  1  0  0  0
 25 26  1  0  0  0
 27 28  2  0  0  0
 27 29  2  0  0  0
 27 30  1  0  0  0
 30 31  2  0  0  0
 30 35  1  0  0  0
 31 32  1  0  0  0
 31 68  1  0  0  0
 32 33  2  0  0  0
 32 69  1  0  0  0
 33 34  1  0  0  0
 33 70  1  0  0  0
 34 35  2  0  0  0
 34 71  1  0  0  0
 35 36  1  0  0  0
 37 38  2  0  0  0
 37 39  1  0  0  0
 39 40  2  0  0  0
 39 41  1  0  0  0
 41 42  1  0  0  0
 41 72  1  0  0  0
 42 43  1  0  0  0
 42 44  1  0  0  0
 42 73  1  0  0  0
 43 44  1  0  0  0
 43 74  1  0  0  0
 43 75  1  0  0  0
 44 76  1  0  0  0
 44 77  1  0  0  0
M  END
> <chembl_id>
CHEMBL3649419

> <chembl_pref_name>
None

> <i_m_ct_stereo_status>
1

> <s_m_source_file>
sdf/inactives_sanitized.sdf

> <i_m_source_file_index>
643

> <i_lp_mmshare_version>
49012

> <i_f3d_flags>
0

> <s_epik_input>
W0NIMl0xW0NIMl1bQ0hdMVtOSF1DKD1PKUMoPU8pW0NASF0oW0NIMl1bQ0hdKFtDSDNdKVtDSDNdKVtOSF1DKD1PKVtDQEBIXTJbQ0gyXVtDQEBIXShTKD1PKSg9TyljM1tjSF1bY0hdW2NIXVtjSF1jM0NsKVtDSDJdTjJDKD1PKUM0KFtDSDJdW0NIMl00KWM1bltjSF1jKENsKVtjSF1jNUY=

> <s_epik_cmdline>
J2VwaWtfcHl0aG9uJywgJy1waHQnLCAnMC41JywgJy1waCcsICc3LjUnLCAnLW50JywgJy1tYScsICcyMDAnLCAnLWltYWUnLCAnPGluZmlsZS5tYWU+JywgJy1vbWFlJywgJzxvdXRmaWxlLm1hZT4n

> <r_lp_tautomer_probability>
1

> <r_epik_Ionization_Penalty>
  0.0000

> <r_epik_Ionization_Penalty_Charging>
  0.0000

> <r_epik_Ionization_Penalty_Neutral>
  0.0000

> <r_epik_State_Penalty>
 -0.0000

> <r_epik_Charging_Adjusted_Penalty>
0

> <i_epik_Tot_Q>
0

> <i_epik_Tot_abs_Q>
0

> <s_lp_Force_Field>
OPLS3e

> <r_lp_Energy>
49.098467

> <b_lp_Chiralities_Consistent>
1

> <s_lp_Variant>
sdf/inactives_sanitized.sdf:643-1

$$$$
sdf/inactives_sanitized.sdf:644
                    3D
 Schrodinger Suite 2020-1.
 67 70  0  0  1  0            999 V2000
   -4.3662    7.5151    1.6800 C   0  0  0  0  0  0
   -4.1458    6.5304    2.7427 N   0  0  0  0  0  0
   -4.4734    7.0425    4.0764 C   0  0  0  0  0  0
   -3.6855    5.2682    2.5449 C   0  0  0  0  0  0
   -3.5629    4.4627    3.4724 O   0  0  0  0  0  0
   -3.3227    4.8264    1.1073 C   0  0  0  0  0  0
   -2.5848    3.4600    1.0978 N   0  3  1  0  0  0
   -2.7550    2.7637   -0.2751 C   0  0  0  0  0  0
   -2.0462    1.3983   -0.2235 C   0  0  0  0  0  0
   -0.5449    1.5566    0.0951 C   0  0  2  0  0  0
    0.1827    0.1923    0.0384 C   0  0  0  0  0  0
    1.7174    0.2867    0.0830 C   0  0  0  0  0  0
    2.2495   -1.0313   -0.0081 O   0  0  0  0  0  0
    3.6201   -1.2244   -0.0016 C   0  0  0  0  0  0
    4.5482   -0.1740    0.0061 C   0  0  0  0  0  0
    5.9157   -0.4318    0.0040 C   0  0  0  0  0  0
    6.4212   -1.7430   -0.0051 C   0  0  0  0  0  0
    5.4775   -2.7842   -0.0090 C   0  0  0  0  0  0
    4.0956   -2.5452   -0.0084 C   0  0  0  0  0  0
    3.1086   -3.7191   -0.0122 C   0  0  0  0  0  0
    3.7149   -4.9081   -0.0040 F   0  0  0  0  0  0
    2.3249   -3.6525    1.0649 F   0  0  0  0  0  0
    2.3414   -3.6580   -1.1014 F   0  0  0  0  0  0
    7.9061   -2.0167   -0.0119 C   0  0  0  0  0  0
    8.4345   -3.3230   -0.0328 C   0  0  0  0  0  0
    9.8301   -3.4360   -0.0397 C   0  0  0  0  0  0
   10.6746   -2.2982   -0.0272 C   0  0  0  0  0  0
   11.9980   -2.6616   -0.0382 N   0  0  0  0  0  0
   11.9698   -3.9690   -0.0563 C   0  0  0  0  0  0
   10.7017   -4.5069   -0.0579 N   0  0  0  0  0  0
   10.3585   -5.9183   -0.0764 C   0  0  0  0  0  0
   10.0600   -1.0372   -0.0067 C   0  0  0  0  0  0
    8.7103   -0.9131    0.0011 N   0  0  0  0  0  0
   10.8014    0.2150    0.0070 C   0  0  0  0  0  0
   11.3912    1.2106    0.0178 N   0  0  0  0  0  0
   -0.4206    2.2434    1.4736 C   0  0  0  0  0  0
   -1.0880    3.6302    1.4682 C   0  0  0  0  0  0
   -4.1986    7.1319    0.6744 H   0  0  0  0  0  0
   -3.7084    8.3731    1.8229 H   0  0  0  0  0  0
   -5.3950    7.8758    1.7163 H   0  0  0  0  0  0
   -4.3085    6.3144    4.8718 H   0  0  0  0  0  0
   -5.5213    7.3422    4.1169 H   0  0  0  0  0  0
   -3.8646    7.9189    4.3019 H   0  0  0  0  0  0
   -4.2432    4.6661    0.5442 H   0  0  0  0  0  0
   -2.6856    5.5299    0.5686 H   0  0  0  0  0  0
   -3.8262    2.6485   -0.4456 H   0  0  0  0  0  0
   -2.3334    3.4287   -1.0313 H   0  0  0  0  0  0
   -2.5253    0.7366    0.5006 H   0  0  0  0  0  0
   -2.1683    0.8919   -1.1819 H   0  0  0  0  0  0
   -0.1119    2.2150   -0.6613 H   0  0  0  0  0  0
   -0.1675   -0.4487    0.8493 H   0  0  0  0  0  0
   -0.0912   -0.3196   -0.8855 H   0  0  0  0  0  0
    2.0707    0.8964   -0.7505 H   0  0  0  0  0  0
    2.0489    0.7499    1.0132 H   0  0  0  0  0  0
    4.2301    0.8572    0.0105 H   0  0  0  0  0  0
    6.5808    0.4193    0.0081 H   0  0  0  0  0  0
    5.8085   -3.8091   -0.0133 H   0  0  0  0  0  0
    7.8204   -4.2087   -0.0438 H   0  0  0  0  0  0
   12.8315   -4.6209   -0.0687 H   0  0  0  0  0  0
   11.2625   -6.5286   -0.0824 H   0  0  0  0  0  0
    9.7713   -6.1343   -0.9694 H   0  0  0  0  0  0
    9.7677   -6.1571    0.8086 H   0  0  0  0  0  0
   -0.8463    1.6118    2.2553 H   0  0  0  0  0  0
    0.6274    2.3527    1.7515 H   0  0  0  0  0  0
   -1.0471    4.0966    2.4529 H   0  0  0  0  0  0
   -0.6436    4.3017    0.7315 H   0  0  0  0  0  0
   -3.0156    2.8630    1.7907 H   0  0  0  0  0  0
  1  2  1  0  0  0
  1 38  1  0  0  0
  1 39  1  0  0  0
  1 40  1  0  0  0
  2  3  1  0  0  0
  2  4  1  0  0  0
  3 41  1  0  0  0
  3 42  1  0  0  0
  3 43  1  0  0  0
  4  5  2  0  0  0
  4  6  1  0  0  0
  6  7  1  0  0  0
  6 44  1  0  0  0
  6 45  1  0  0  0
  7  8  1  0  0  0
  7 37  1  0  0  0
  7 67  1  0  0  0
  8  9  1  0  0  0
  8 46  1  0  0  0
  8 47  1  0  0  0
  9 10  1  0  0  0
  9 48  1  0  0  0
  9 49  1  0  0  0
 10 11  1  0  0  0
 10 36  1  0  0  0
 10 50  1  0  0  0
 11 12  1  0  0  0
 11 51  1  0  0  0
 11 52  1  0  0  0
 12 13  1  0  0  0
 12 53  1  0  0  0
 12 54  1  0  0  0
 13 14  1  0  0  0
 14 15  2  0  0  0
 14 19  1  0  0  0
 15 16  1  0  0  0
 15 55  1  0  0  0
 16 17  2  0  0  0
 16 56  1  0  0  0
 17 18  1  0  0  0
 17 24  1  0  0  0
 18 19  2  0  0  0
 18 57  1  0  0  0
 19 20  1  0  0  0
 20 21  1  0  0  0
 20 22  1  0  0  0
 20 23  1  0  0  0
 24 25  2  0  0  0
 24 33  1  0  0  0
 25 26  1  0  0  0
 25 58  1  0  0  0
 26 27  2  0  0  0
 26 30  1  0  0  0
 27 28  1  0  0  0
 27 32  1  0  0  0
 28 29  2  0  0  0
 29 30  1  0  0  0
 29 59  1  0  0  0
 30 31  1  0  0  0
 31 60  1  0  0  0
 31 61  1  0  0  0
 31 62  1  0  0  0
 32 33  2  0  0  0
 32 34  1  0  0  0
 34 35  3  0  0  0
 36 37  1  0  0  0
 36 63  1  0  0  0
 36 64  1  0  0  0
 37 65  1  0  0  0
 37 66  1  0  0  0
M  CHG  1   7   1
M  END
> <chembl_id>
CHEMBL1669276

> <chembl_pref_name>
None

> <s_m_source_file>
sdf/inactives_sanitized.sdf

> <i_m_source_file_index>
644

> <i_lp_mmshare_version>
49012

> <i_m_ct_stereo_status>
1

> <i_f3d_flags>
0

> <s_epik_input>
W0NIM11OKFtDSDNdKUMoPU8pW0NIMl1OMVtDSDJdW0NIMl1bQ0hdKFtDSDJdW0NIMl0xKVtDSDJdW0NIMl1PYzJbY0hdW2NIXWMoW2NIXWMyQyhGKShGKUYpLWMoW2NIXTMpbmMoQyNOKWMoYzM0KW5bY0hdbjRbQ0gzXQ==

> <s_epik_cmdline>
J2VwaWtfcHl0aG9uJywgJy1waHQnLCAnMC41JywgJy1waCcsICc3LjUnLCAnLW50JywgJy1tYScsICcyMDAnLCAnLWltYWUnLCAnPGluZmlsZS5tYWU+JywgJy1vbWFlJywgJzxvdXRmaWxlLm1hZT4n

> <r_lp_tautomer_probability>
1

> <r_epik_Ionization_Penalty>
  0.0700

> <r_epik_Ionization_Penalty_Charging>
  0.0700

> <r_epik_Ionization_Penalty_Neutral>
  0.0000

> <r_epik_State_Penalty>
  0.0614

> <r_epik_Charging_Adjusted_Penalty>
0.131356499656137

> <i_epik_Tot_Q>
1

> <i_epik_Tot_abs_Q>
1

> <s_lp_Force_Field>
OPLS3e

> <r_lp_Energy>
54.201243

> <b_lp_Chiralities_Consistent>
1

> <s_lp_Variant>
sdf/inactives_sanitized.sdf:644-1

$$$$
sdf/inactives_sanitized.sdf:645
                    3D
 Schrodinger Suite 2020-1.
 63 67  0  0  1  0            999 V2000
   -7.3205    2.2572   -2.6279 C   0  0  0  0  0  0
   -7.4541    2.0077   -1.1117 C   0  0  0  0  0  0
   -7.4487    3.3418   -0.3382 C   0  0  0  0  0  0
   -8.7020    1.3643   -0.8753 O   0  0  0  0  0  0
   -8.5507    0.1500   -0.2857 C   0  0  0  0  0  0
   -9.5024   -0.5705    0.0078 O   0  0  0  0  0  0
   -7.1028   -0.0715   -0.1036 C   0  0  0  0  0  0
   -6.4049   -1.1462    0.4436 C   0  0  0  0  0  0
   -5.0098   -1.0971    0.4883 C   0  0  0  0  0  0
   -4.3064    0.0142   -0.0061 C   0  0  0  0  0  0
   -5.0378    1.0843   -0.5458 C   0  0  0  0  0  0
   -6.4324    1.0324   -0.5936 C   0  0  0  0  0  0
   -2.8178    0.0541    0.0336 C   0  0  0  0  0  0
   -2.1374    1.2264    0.3901 C   0  0  0  0  0  0
   -0.7435    1.2674    0.4136 C   0  0  0  0  0  0
    0.0000    0.1344    0.0770 C   0  0  0  0  0  0
    1.5239    0.2030    0.0662 C   0  0  0  0  0  0
    2.1089    0.7709   -1.2460 C   0  0  2  0  0  0
    1.6893    0.0136   -2.4296 N   0  0  0  0  0  0
    0.8295    0.4448   -3.3720 C   0  0  0  0  0  0
    0.3335    1.5742   -3.3408 O   0  0  0  0  0  0
    0.4798   -0.5748   -4.4911 C   0  0  2  0  0  0
   -0.3159   -1.7989   -3.9538 C   0  0  0  0  0  0
   -0.7273   -2.7329   -5.1277 C   0  0  0  0  0  0
   -0.2629   -2.1637   -6.4989 C   0  0  2  0  0  0
    1.2821   -1.9811   -6.4642 C   0  0  0  0  0  0
    1.7203   -1.0331   -5.3105 C   0  0  0  0  0  0
   -0.8984   -0.7526   -6.6580 C   0  0  0  0  0  0
   -0.4603    0.1610   -5.4844 N   0  3  0  0  0  0
    3.5779    0.8518   -1.2041 C   0  0  0  0  0  0
    4.7328    0.9149   -1.1719 N   0  0  0  0  0  0
   -0.6679   -1.0440   -0.2735 C   0  0  0  0  0  0
    0.0281   -2.1547   -0.6092 F   0  0  0  0  0  0
   -2.0616   -1.0796   -0.2930 C   0  0  0  0  0  0
   -6.3703    2.7353   -2.8692 H   0  0  0  0  0  0
   -8.1170    2.9043   -2.9977 H   0  0  0  0  0  0
   -7.3696    1.3246   -3.1918 H   0  0  0  0  0  0
   -6.5040    3.8713   -0.4657 H   0  0  0  0  0  0
   -7.5931    3.1831    0.7314 H   0  0  0  0  0  0
   -8.2456    4.0036   -0.6797 H   0  0  0  0  0  0
   -6.9225   -2.0120    0.8307 H   0  0  0  0  0  0
   -4.4746   -1.9322    0.9168 H   0  0  0  0  0  0
   -4.5200    1.9486   -0.9359 H   0  0  0  0  0  0
   -2.6890    2.1174    0.6534 H   0  0  0  0  0  0
   -0.2430    2.1860    0.6842 H   0  0  0  0  0  0
    1.8540    0.8175    0.9056 H   0  0  0  0  0  0
    1.9361   -0.7872    0.2670 H   0  0  0  0  0  0
    1.7905    1.8126   -1.3242 H   0  0  0  0  0  0
    1.9841   -0.9517   -2.4598 H   0  0  0  0  0  0
    0.2870   -2.3615   -3.2391 H   0  0  0  0  0  0
   -1.2051   -1.4754   -3.4084 H   0  0  0  0  0  0
   -0.3017   -3.7266   -4.9785 H   0  0  0  0  0  0
   -1.8091   -2.8757   -5.1302 H   0  0  0  0  0  0
   -0.5616   -2.8206   -7.3172 H   0  0  0  0  0  0
    1.7639   -2.9534   -6.3482 H   0  0  0  0  0  0
    1.6337   -1.5925   -7.4211 H   0  0  0  0  0  0
    2.4351   -1.5500   -4.6675 H   0  0  0  0  0  0
    2.2524   -0.1720   -5.7202 H   0  0  0  0  0  0
   -0.5775   -0.2419   -7.5668 H   0  0  0  0  0  0
   -1.9887   -0.7717   -6.6264 H   0  0  0  0  0  0
    0.0153    0.9721   -5.8538 H   0  0  0  0  0  0
   -2.5549   -1.9977   -0.5779 H   0  0  0  0  0  0
   -1.2799    0.4838   -4.9899 H   0  0  0  0  0  0
  1  2  1  0  0  0
  1 35  1  0  0  0
  1 36  1  0  0  0
  1 37  1  0  0  0
  2  3  1  0  0  0
  2  4  1  0  0  0
  2 12  1  0  0  0
  3 38  1  0  0  0
  3 39  1  0  0  0
  3 40  1  0  0  0
  4  5  1  0  0  0
  5  6  2  0  0  0
  5  7  1  0  0  0
  7  8  2  0  0  0
  7 12  1  0  0  0
  8  9  1  0  0  0
  8 41  1  0  0  0
  9 10  2  0  0  0
  9 42  1  0  0  0
 10 11  1  0  0  0
 10 13  1  0  0  0
 11 12  2  0  0  0
 11 43  1  0  0  0
 13 14  2  0  0  0
 13 34  1  0  0  0
 14 15  1  0  0  0
 14 44  1  0  0  0
 15 16  2  0  0  0
 15 45  1  0  0  0
 16 17  1  0  0  0
 16 32  1  0  0  0
 17 18  1  0  0  0
 17 46  1  0  0  0
 17 47  1  0  0  0
 18 19  1  0  0  0
 18 30  1  0  0  0
 18 48  1  0  0  0
 19 20  1  0  0  0
 19 49  1  0  0  0
 20 21  2  0  0  0
 20 22  1  0  0  0
 22 23  1  0  0  0
 22 27  1  0  0  0
 22 29  1  0  0  0
 23 24  1  0  0  0
 23 50  1  0  0  0
 23 51  1  0  0  0
 24 25  1  0  0  0
 24 52  1  0  0  0
 24 53  1  0  0  0
 25 26  1  0  0  0
 25 28  1  0  0  0
 25 54  1  0  0  0
 26 27  1  0  0  0
 26 55  1  0  0  0
 26 56  1  0  0  0
 27 57  1  0  0  0
 27 58  1  0  0  0
 28 29  1  0  0  0
 28 59  1  0  0  0
 28 60  1  0  0  0
 29 61  1  0  0  0
 29 63  1  0  0  0
 30 31  3  0  0  0
 32 33  1  0  0  0
 32 34  2  0  0  0
 34 62  1  0  0  0
M  CHG  1  29   1
M  END
> <chembl_id>
CHEMBL3702591

> <chembl_pref_name>
None

> <i_m_ct_stereo_status>
1

> <s_m_source_file>
sdf/inactives_sanitized.sdf

> <i_m_source_file_index>
645

> <i_lp_mmshare_version>
49012

> <i_f3d_flags>
0

> <s_epik_input>
Tz1DMU9DKFtDSDNdKShbQ0gzXSljKGMxMilbY0hdYyhbY0hdW2NIXTIpLWMzW2NIXVtjSF1jKGMoRilbY0hdMylbQ0gyXVtDQEBIXShDI04pW05IXUMoPU8pW0NAXTQ1W0NIMl1bQ0gyXVtDQEhdKFtDSDJdW0NIMl00KVtDSDJdW05IXTU=

> <s_epik_cmdline>
J2VwaWtfcHl0aG9uJywgJy1waHQnLCAnMC41JywgJy1waCcsICc3LjUnLCAnLW50JywgJy1tYScsICcyMDAnLCAnLWltYWUnLCAnPGluZmlsZS5tYWU+JywgJy1vbWFlJywgJzxvdXRmaWxlLm1hZT4n

> <r_epik_Ionization_Penalty>
  0.2492

> <r_epik_Ionization_Penalty_Charging>
  0.2491

> <r_epik_Ionization_Penalty_Neutral>
  0.0001

> <r_epik_State_Penalty>
  0.2404

> <r_epik_Charging_Adjusted_Penalty>
0.489493738808436

> <i_epik_Tot_Q>
1

> <i_epik_Tot_abs_Q>
1

> <s_epik_Chemistry_Notes>
This compound has an ester and may undergo hydrolysis at high or low pH.

> <s_lp_Force_Field>
OPLS3e

> <r_lp_Energy>
49.966472

> <b_lp_Chiralities_Consistent>
1

> <s_lp_Variant>
sdf/inactives_sanitized.sdf:645-1

$$$$
sdf/inactives_sanitized.sdf:645
                    3D
 Schrodinger Suite 2020-1.
 62 66  0  0  1  0            999 V2000
   -7.6847   -1.4919    3.2818 C   0  0  0  0  0  0
   -7.7672   -1.7390    1.7613 C   0  0  0  0  0  0
   -7.6895   -3.2476    1.4506 C   0  0  0  0  0  0
   -9.0250   -1.2559    1.3015 O   0  0  0  0  0  0
   -8.8900   -0.2702    0.3771 C   0  0  0  0  0  0
   -9.8524    0.2893   -0.1445 O   0  0  0  0  0  0
   -7.4440   -0.0571    0.1713 C   0  0  0  0  0  0
   -6.7605    0.8278   -0.6603 C   0  0  0  0  0  0
   -5.3639    0.8195   -0.6581 C   0  0  0  0  0  0
   -4.6450   -0.0644    0.1637 C   0  0  0  0  0  0
   -5.3614   -0.9449    0.9900 C   0  0  0  0  0  0
   -6.7579   -0.9342    0.9885 C   0  0  0  0  0  0
   -3.1555   -0.0676    0.1584 C   0  0  0  0  0  0
   -2.4342    1.1337    0.1456 C   0  0  0  0  0  0
   -1.0396    1.1324    0.1377 C   0  0  0  0  0  0
   -0.3357   -0.0741    0.1393 C   0  0  0  0  0  0
    1.1901   -0.0615    0.1129 C   0  0  0  0  0  0
    1.7850   -0.0709   -1.3115 C   0  0  2  0  0  0
    1.3884   -1.2636   -2.0637 N   0  0  0  0  0  0
    1.6438   -1.4993   -3.3662 C   0  0  0  0  0  0
    2.2545   -0.6840   -4.0602 O   0  0  0  0  0  0
    1.1487   -2.8277   -4.0151 C   0  0  2  0  0  0
    2.3772   -3.6703   -4.4868 C   0  0  0  0  0  0
    1.9032   -4.9940   -5.1502 C   0  0  0  0  0  0
    0.3540   -5.0892   -5.1199 C   0  0  2  0  0  0
   -0.2465   -3.8747   -5.8827 C   0  0  0  0  0  0
    0.2277   -2.5381   -5.2417 C   0  0  0  0  0  0
   -0.0656   -4.9354   -3.6270 C   0  0  0  0  0  0
    0.3675   -3.6437   -3.0545 N   0  0  2  0  0  0
    3.2513    0.0941   -1.2788 C   0  0  0  0  0  0
    4.4011    0.2237   -1.2523 N   0  0  0  0  0  0
   -1.0451   -1.2803    0.1532 C   0  0  0  0  0  0
   -0.3887   -2.4639    0.1498 F   0  0  0  0  0  0
   -2.4398   -1.2725    0.1640 C   0  0  0  0  0  0
   -6.7301   -1.8290    3.6873 H   0  0  0  0  0  0
   -8.4746   -2.0219    3.8157 H   0  0  0  0  0  0
   -7.7854   -0.4320    3.5200 H   0  0  0  0  0  0
   -6.7379   -3.6708    1.7746 H   0  0  0  0  0  0
   -7.7862   -3.4405    0.3812 H   0  0  0  0  0  0
   -8.4833   -3.8003    1.9548 H   0  0  0  0  0  0
   -7.2904    1.5158   -1.3030 H   0  0  0  0  0  0
   -4.8394    1.5041   -1.3089 H   0  0  0  0  0  0
   -4.8307   -1.6289    1.6364 H   0  0  0  0  0  0
   -2.9543    2.0809    0.1462 H   0  0  0  0  0  0
   -0.5082    2.0731    0.1246 H   0  0  0  0  0  0
    1.5427    0.8238    0.6451 H   0  0  0  0  0  0
    1.5703   -0.9055    0.6914 H   0  0  0  0  0  0
    1.3926    0.8010   -1.8392 H   0  0  0  0  0  0
    0.8776   -1.9645   -1.5462 H   0  0  0  0  0  0
    2.9844   -3.1071   -5.1984 H   0  0  0  0  0  0
    3.0347   -3.8970   -3.6448 H   0  0  0  0  0  0
    2.2595   -5.0454   -6.1801 H   0  0  0  0  0  0
    2.3431   -5.8514   -4.6386 H   0  0  0  0  0  0
    0.0052   -6.0353   -5.5355 H   0  0  0  0  0  0
    0.0457   -3.9122   -6.9333 H   0  0  0  0  0  0
   -1.3361   -3.9298   -5.8739 H   0  0  0  0  0  0
    0.7567   -1.9451   -5.9903 H   0  0  0  0  0  0
   -0.6384   -1.9431   -4.9443 H   0  0  0  0  0  0
   -1.1493   -5.0119   -3.5304 H   0  0  0  0  0  0
    0.3572   -5.7433   -3.0284 H   0  0  0  0  0  0
   -0.4681   -3.1304   -2.8124 H   0  0  0  0  0  0
   -2.9661   -2.2162    0.1679 H   0  0  0  0  0  0
  1  2  1  0  0  0
  1 35  1  0  0  0
  1 36  1  0  0  0
  1 37  1  0  0  0
  2  3  1  0  0  0
  2  4  1  0  0  0
  2 12  1  0  0  0
  3 38  1  0  0  0
  3 39  1  0  0  0
  3 40  1  0  0  0
  4  5  1  0  0  0
  5  6  2  0  0  0
  5  7  1  0  0  0
  7  8  2  0  0  0
  7 12  1  0  0  0
  8  9  1  0  0  0
  8 41  1  0  0  0
  9 10  2  0  0  0
  9 42  1  0  0  0
 10 11  1  0  0  0
 10 13  1  0  0  0
 11 12  2  0  0  0
 11 43  1  0  0  0
 13 14  2  0  0  0
 13 34  1  0  0  0
 14 15  1  0  0  0
 14 44  1  0  0  0
 15 16  2  0  0  0
 15 45  1  0  0  0
 16 17  1  0  0  0
 16 32  1  0  0  0
 17 18  1  0  0  0
 17 46  1  0  0  0
 17 47  1  0  0  0
 18 19  1  0  0  0
 18 30  1  0  0  0
 18 48  1  0  0  0
 19 20  1  0  0  0
 19 49  1  0  0  0
 20 21  2  0  0  0
 20 22  1  0  0  0
 22 23  1  0  0  0
 22 27  1  0  0  0
 22 29  1  0  0  0
 23 24  1  0  0  0
 23 50  1  0  0  0
 23 51  1  0  0  0
 24 25  1  0  0  0
 24 52  1  0  0  0
 24 53  1  0  0  0
 25 26  1  0  0  0
 25 28  1  0  0  0
 25 54  1  0  0  0
 26 27  1  0  0  0
 26 55  1  0  0  0
 26 56  1  0  0  0
 27 57  1  0  0  0
 27 58  1  0  0  0
 28 29  1  0  0  0
 28 59  1  0  0  0
 28 60  1  0  0  0
 29 61  1  0  0  0
 30 31  3  0  0  0
 32 33  1  0  0  0
 32 34  2  0  0  0
 34 62  1  0  0  0
M  END
> <chembl_id>
CHEMBL3702591

> <chembl_pref_name>
None

> <i_m_ct_stereo_status>
1

> <s_m_source_file>
sdf/inactives_sanitized.sdf

> <i_m_source_file_index>
645

> <i_lp_mmshare_version>
49012

> <i_f3d_flags>
0

> <s_epik_input>
Tz1DMU9DKFtDSDNdKShbQ0gzXSljKGMxMilbY0hdYyhbY0hdW2NIXTIpLWMzW2NIXVtjSF1jKGMoRilbY0hdMylbQ0gyXVtDQEBIXShDI04pW05IXUMoPU8pW0NAXTQ1W0NIMl1bQ0gyXVtDQEhdKFtDSDJdW0NIMl00KVtDSDJdW05IXTU=

> <s_epik_cmdline>
J2VwaWtfcHl0aG9uJywgJy1waHQnLCAnMC41JywgJy1waCcsICc3LjUnLCAnLW50JywgJy1tYScsICcyMDAnLCAnLWltYWUnLCAnPGluZmlsZS5tYWU+JywgJy1vbWFlJywgJzxvdXRmaWxlLm1hZT4n

> <r_epik_Ionization_Penalty>
  0.6336

> <r_epik_Ionization_Penalty_Charging>
  0.0000

> <r_epik_Ionization_Penalty_Neutral>
  0.6336

> <r_epik_State_Penalty>
  0.6506

> <r_epik_Charging_Adjusted_Penalty>
0.650608926039391

> <i_epik_Tot_Q>
0

> <i_epik_Tot_abs_Q>
0

> <s_epik_Chemistry_Notes>
This compound has an ester and may undergo hydrolysis at high or low pH.

> <s_lp_Force_Field>
OPLS3e

> <r_lp_Energy>
46.206972

> <b_lp_Chiralities_Consistent>
1

> <s_lp_Variant>
sdf/inactives_sanitized.sdf:645-2

$$$$
sdf/inactives_sanitized.sdf:646
                    3D
 Schrodinger Suite 2020-1.
 36 37  0  0  1  0            999 V2000
   -1.1114   -1.1004    1.8559 O   0  0  0  0  0  0
    0.6036   -1.2341   -0.3287 N   0  0  0  0  0  0
    2.0617    0.4926   -1.0895 N   0  0  0  0  0  0
    2.7950   -1.0425    0.6124 N   0  0  0  0  0  0
   -1.2288   -3.3760    2.0782 N   0  0  0  0  0  0
   -1.1295   -0.5828   -2.0224 N   0  0  0  0  0  0
    1.8604   -0.5808   -0.2692 C   0  0  0  0  0  0
    3.2622    1.1246   -1.0161 C   0  0  0  0  0  0
    3.9865   -0.3912    0.6645 C   0  0  0  0  0  0
    0.2938   -2.4441    0.4179 C   0  0  0  0  0  0
   -0.7579   -2.2354    1.5279 C   0  0  0  0  0  0
    4.2704    0.7130   -0.1419 C   0  0  0  0  0  0
   -0.3162   -0.8562   -1.2453 C   0  0  0  0  0  0
   -2.1627   -3.5489    3.1177 C   0  0  0  0  0  0
    3.4478    2.3090   -1.9448 C   0  0  0  0  0  0
    4.9981   -0.9349    1.6547 C   0  0  0  0  0  0
   -2.7009   -4.8324    3.2479 C   0  0  0  0  0  0
   -2.5473   -2.5408    4.0178 C   0  0  0  0  0  0
   -3.6272   -5.1073    4.2503 C   0  0  0  0  0  0
   -3.4731   -2.8195    5.0201 C   0  0  0  0  0  0
   -4.0110   -4.0991    5.1304 C   0  0  0  0  0  0
   -0.8903   -4.2382    1.6768 H   0  0  0  0  0  0
   -0.0867   -3.2116   -0.2594 H   0  0  0  0  0  0
    1.1522   -2.9335    0.8794 H   0  0  0  0  0  0
    5.2218    1.2229   -0.0922 H   0  0  0  0  0  0
    4.3941    2.8192   -1.7609 H   0  0  0  0  0  0
    2.6439    3.0334   -1.8078 H   0  0  0  0  0  0
    3.4376    1.9799   -2.9845 H   0  0  0  0  0  0
    5.9268   -0.3633    1.6352 H   0  0  0  0  0  0
    5.2370   -1.9736    1.4236 H   0  0  0  0  0  0
    4.5984   -0.8939    2.6686 H   0  0  0  0  0  0
   -2.4098   -5.6227    2.5703 H   0  0  0  0  0  0
   -2.1374   -1.5444    3.9744 H   0  0  0  0  0  0
   -4.0456   -6.0984    4.3453 H   0  0  0  0  0  0
   -3.7695   -2.0458    5.7127 H   0  0  0  0  0  0
   -4.7292   -4.3124    5.9085 H   0  0  0  0  0  0
  1 11  2  0  0  0
  2  7  1  0  0  0
  2 10  1  0  0  0
  2 13  1  0  0  0
  3  7  2  0  0  0
  3  8  1  0  0  0
  4  7  1  0  0  0
  4  9  2  0  0  0
  5 11  1  0  0  0
  5 14  1  0  0  0
  5 22  1  0  0  0
  6 13  3  0  0  0
  8 12  2  0  0  0
  8 15  1  0  0  0
  9 12  1  0  0  0
  9 16  1  0  0  0
 10 11  1  0  0  0
 10 23  1  0  0  0
 10 24  1  0  0  0
 12 25  1  0  0  0
 14 17  2  0  0  0
 14 18  1  0  0  0
 15 26  1  0  0  0
 15 27  1  0  0  0
 15 28  1  0  0  0
 16 29  1  0  0  0
 16 30  1  0  0  0
 16 31  1  0  0  0
 17 19  1  0  0  0
 17 32  1  0  0  0
 18 20  2  0  0  0
 18 33  1  0  0  0
 19 21  2  0  0  0
 19 34  1  0  0  0
 20 21  1  0  0  0
 20 35  1  0  0  0
 21 36  1  0  0  0
M  END
> <chembl_id>
CHEMBL1432431

> <chembl_pref_name>
None

> <s_m_source_file>
sdf/inactives_sanitized.sdf

> <i_m_source_file_index>
646

> <i_lp_mmshare_version>
49012

> <i_m_ct_stereo_status>
1

> <i_f3d_flags>
0

> <s_epik_input>
W2NIXTFbY0hdW2NIXVtjSF1bY0hdYzFbTkhdQyg9TylbQ0gyXU4oQyNOKWMybmMoW0NIM10pW2NIXWMobjIpW0NIM10=

> <s_epik_cmdline>
J2VwaWtfcHl0aG9uJywgJy1waHQnLCAnMC41JywgJy1waCcsICc3LjUnLCAnLW50JywgJy1tYScsICcyMDAnLCAnLWltYWUnLCAnPGluZmlsZS5tYWU+JywgJy1vbWFlJywgJzxvdXRmaWxlLm1hZT4n

> <r_lp_tautomer_probability>
1

> <r_epik_Ionization_Penalty>
  0.0016

> <r_epik_Ionization_Penalty_Charging>
  0.0000

> <r_epik_Ionization_Penalty_Neutral>
  0.0016

> <r_epik_State_Penalty>
 -0.0000

> <r_epik_Charging_Adjusted_Penalty>
0

> <i_epik_Tot_Q>
0

> <i_epik_Tot_abs_Q>
0

> <s_lp_Force_Field>
OPLS3e

> <r_lp_Energy>
26.380626

> <b_lp_Chiralities_Consistent>
1

> <s_lp_Variant>
sdf/inactives_sanitized.sdf:646-1

$$$$
sdf/inactives_sanitized.sdf:647
                    3D
 Schrodinger Suite 2020-1.
 44 47  0  0  1  0            999 V2000
    0.1190    0.4424    0.0362 N   0  0  0  0  0  0
    2.3131   -0.0200    0.9010 N   0  0  0  0  0  0
    2.0575    1.3600   -1.0479 N   0  0  0  0  0  0
    4.4781   -0.4823    1.7344 N   0  0  0  0  0  0
    4.2639    0.8963   -0.1767 N   0  0  0  0  0  0
    4.4620    2.9131   -2.9624 N   0  0  0  0  0  0
    1.5367    0.5987   -0.0392 C   0  0  0  0  0  0
    3.6594    0.1538    0.7900 C   0  0  0  0  0  0
   -0.4540   -0.7249    0.6250 C   0  0  0  0  0  0
   -0.7485    1.4521   -0.4778 C   0  0  0  0  0  0
    3.4092    1.4689   -1.0595 C   0  0  0  0  0  0
   -1.6100   -0.6321    1.4181 C   0  0  0  0  0  0
   -1.9221    1.1036   -1.1667 C   0  0  0  0  0  0
    0.1158   -1.9926    0.4196 C   0  0  0  0  0  0
   -0.4550    2.8146   -0.3020 C   0  0  0  0  0  0
    5.9415   -0.4331    1.7932 C   0  0  0  0  0  0
    4.0299   -1.3252    2.8462 C   0  0  0  0  0  0
    3.9952    2.2726   -2.1186 C   0  0  0  0  0  0
    6.3982   -1.5039    2.7814 C   0  0  0  0  0  0
    5.2353   -1.5824    3.7485 C   0  0  0  0  0  0
   -2.1755   -1.7680    1.9908 C   0  0  0  0  0  0
   -2.7719    2.0850   -1.6694 C   0  0  0  0  0  0
   -0.4481   -3.1294    0.9918 C   0  0  0  0  0  0
   -1.3036    3.7973   -0.8042 C   0  0  0  0  0  0
   -1.5915   -3.0123    1.7756 C   0  0  0  0  0  0
   -2.4585    3.4284   -1.4869 C   0  0  0  0  0  0
   -2.0726    0.3260    1.6057 H   0  0  0  0  0  0
   -2.1767    0.0658   -1.3278 H   0  0  0  0  0  0
    0.9948   -2.1074   -0.1978 H   0  0  0  0  0  0
    0.4297    3.1217    0.2366 H   0  0  0  0  0  0
    6.3428   -0.6690    0.8067 H   0  0  0  0  0  0
    6.2916    0.5578    2.0856 H   0  0  0  0  0  0
    3.2708   -0.7853    3.4140 H   0  0  0  0  0  0
    3.5957   -2.2580    2.4838 H   0  0  0  0  0  0
    6.5660   -2.4533    2.2699 H   0  0  0  0  0  0
    7.3303   -1.2334    3.2785 H   0  0  0  0  0  0
    5.3037   -0.8211    4.5274 H   0  0  0  0  0  0
    5.1772   -2.5518    4.2443 H   0  0  0  0  0  0
   -3.0625   -1.6830    2.6011 H   0  0  0  0  0  0
   -3.6687    1.8044   -2.2018 H   0  0  0  0  0  0
   -0.0017   -4.0987    0.8248 H   0  0  0  0  0  0
   -1.0675    4.8416   -0.6623 H   0  0  0  0  0  0
   -2.0296   -3.8939    2.2200 H   0  0  0  0  0  0
   -3.1168    4.1904   -1.8774 H   0  0  0  0  0  0
  1  7  1  0  0  0
  1  9  1  0  0  0
  1 10  1  0  0  0
  2  7  2  0  0  0
  2  8  1  0  0  0
  3  7  1  0  0  0
  3 11  2  0  0  0
  4  8  1  0  0  0
  4 16  1  0  0  0
  4 17  1  0  0  0
  5  8  2  0  0  0
  5 11  1  0  0  0
  6 18  3  0  0  0
  9 12  2  0  0  0
  9 14  1  0  0  0
 10 13  2  0  0  0
 10 15  1  0  0  0
 11 18  1  0  0  0
 12 21  1  0  0  0
 12 27  1  0  0  0
 13 22  1  0  0  0
 13 28  1  0  0  0
 14 23  2  0  0  0
 14 29  1  0  0  0
 15 24  2  0  0  0
 15 30  1  0  0  0
 16 19  1  0  0  0
 16 31  1  0  0  0
 16 32  1  0  0  0
 17 20  1  0  0  0
 17 33  1  0  0  0
 17 34  1  0  0  0
 19 20  1  0  0  0
 19 35  1  0  0  0
 19 36  1  0  0  0
 20 37  1  0  0  0
 20 38  1  0  0  0
 21 25  2  0  0  0
 21 39  1  0  0  0
 22 26  2  0  0  0
 22 40  1  0  0  0
 23 25  1  0  0  0
 23 41  1  0  0  0
 24 26  1  0  0  0
 24 42  1  0  0  0
 25 43  1  0  0  0
 26 44  1  0  0  0
M  END
> <chembl_id>
CHEMBL1355124

> <chembl_pref_name>
None

> <s_m_source_file>
sdf/inactives_sanitized.sdf

> <i_m_source_file_index>
647

> <i_lp_mmshare_version>
49012

> <i_m_ct_stereo_status>
1

> <i_f3d_flags>
0

> <s_epik_input>
W2NIXTFbY0hdW2NIXVtjSF1bY0hdYzFOKGMyW2NIXVtjSF1bY0hdW2NIXVtjSF0yKWMzbmMobmMobjMpQyNOKU40W0NIMl1bQ0gyXVtDSDJdW0NIMl00

> <s_epik_cmdline>
J2VwaWtfcHl0aG9uJywgJy1waHQnLCAnMC41JywgJy1waCcsICc3LjUnLCAnLW50JywgJy1tYScsICcyMDAnLCAnLWltYWUnLCAnPGluZmlsZS5tYWU+JywgJy1vbWFlJywgJzxvdXRmaWxlLm1hZT4n

> <r_lp_tautomer_probability>
1

> <r_epik_Ionization_Penalty>
  0.0004

> <r_epik_Ionization_Penalty_Charging>
  0.0000

> <r_epik_Ionization_Penalty_Neutral>
  0.0004

> <r_epik_State_Penalty>
 -0.0000

> <r_epik_Charging_Adjusted_Penalty>
0

> <i_epik_Tot_Q>
0

> <i_epik_Tot_abs_Q>
0

> <s_lp_Force_Field>
OPLS3e

> <r_lp_Energy>
41.18743

> <b_lp_Chiralities_Consistent>
1

> <s_lp_Variant>
sdf/inactives_sanitized.sdf:647-1

$$$$
sdf/inactives_sanitized.sdf:648
                    3D
 Schrodinger Suite 2020-1.
 50 53  0  0  1  0            999 V2000
    4.9237    0.0406   -3.5556 C   0  0  0  0  0  0
    3.4495   -0.2207   -3.3284 C   0  0  0  0  0  0
    4.4456   -1.3668   -3.3120 C   0  0  0  0  0  0
   -4.1395   -0.8846   -0.4889 C   0  0  0  0  0  0
   -5.1010   -0.0216    0.0507 C   0  0  0  0  0  0
   -4.6626    1.1534    0.6738 C   0  0  0  0  0  0
   -3.3067    1.4573    0.7562 C   0  0  0  0  0  0
   -2.3463    0.5931    0.2154 C   0  0  0  0  0  0
   -2.7826   -0.5844   -0.4110 C   0  0  0  0  0  0
   -6.5584   -0.3458   -0.0382 C   0  0  0  0  0  0
   -7.5120    0.6723   -0.1869 C   0  0  0  0  0  0
   -8.8691    0.3724   -0.2721 C   0  0  0  0  0  0
   -9.2875   -0.9529   -0.2083 C   0  0  0  0  0  0
   -8.3595   -1.9789   -0.0599 C   0  0  0  0  0  0
   -7.0032   -1.6750    0.0242 C   0  0  0  0  0  0
   -0.8760    0.9489    0.3106 C   0  0  0  0  0  0
   -0.0011   -0.0052   -0.0630 N   0  0  0  0  0  0
   -0.5202    2.0549    0.7247 O   0  0  0  0  0  0
    1.4612    0.1082   -0.0531 C   0  0  2  0  0  0
    2.0277   -0.5428   -1.3294 C   0  0  0  0  0  0
    2.8641    0.2106   -2.0628 N   0  0  0  0  0  0
    1.7314   -1.7062   -1.6084 O   0  0  0  0  0  0
    2.0957   -0.5130    1.2208 C   0  0  0  0  0  0
    1.6939    0.1970    2.5023 C   0  0  0  0  0  0
    2.5397   -0.1476   -4.4857 C   0  0  0  0  0  0
    1.8252   -0.0899   -5.3942 N   0  0  0  0  0  0
    0.8050   -0.2429    3.4828 C   0  0  0  0  0  0
    0.6646    0.9610    4.7272 S   0  0  0  0  0  0
    1.7983    1.9177    3.8368 C   0  0  0  0  0  0
    2.2302    1.3855    2.7224 N   0  0  0  0  0  0
    5.2608    0.3118   -4.5565 H   0  0  0  0  0  0
    5.5025    0.5345   -2.7744 H   0  0  0  0  0  0
    4.6939   -1.8432   -2.3630 H   0  0  0  0  0  0
    4.4488   -2.0717   -4.1439 H   0  0  0  0  0  0
   -4.4376   -1.7946   -0.9886 H   0  0  0  0  0  0
   -5.3719    1.8406    1.1111 H   0  0  0  0  0  0
   -3.0141    2.3740    1.2485 H   0  0  0  0  0  0
   -2.0835   -1.2810   -0.8509 H   0  0  0  0  0  0
   -7.2071    1.7066   -0.2499 H   0  0  0  0  0  0
   -9.5936    1.1647   -0.3900 H   0  0  0  0  0  0
  -10.3398   -1.1873   -0.2744 H   0  0  0  0  0  0
   -8.6902   -3.0058   -0.0083 H   0  0  0  0  0  0
   -6.2996   -2.4850    0.1493 H   0  0  0  0  0  0
   -0.3597   -0.8883   -0.3958 H   0  0  0  0  0  0
    1.7347    1.1662   -0.0719 H   0  0  0  0  0  0
    3.0138    1.1732   -1.7966 H   0  0  0  0  0  0
    1.8210   -1.5678    1.2846 H   0  0  0  0  0  0
    3.1842   -0.5120    1.1305 H   0  0  0  0  0  0
    0.2439   -1.1649    3.5237 H   0  0  0  0  0  0
    2.1141    2.8874    4.1913 H   0  0  0  0  0  0
  1  2  1  0  0  0
  1  3  1  0  0  0
  1 31  1  0  0  0
  1 32  1  0  0  0
  2  3  1  0  0  0
  2 21  1  0  0  0
  2 25  1  0  0  0
  3 33  1  0  0  0
  3 34  1  0  0  0
  4  5  2  0  0  0
  4  9  1  0  0  0
  4 35  1  0  0  0
  5  6  1  0  0  0
  5 10  1  0  0  0
  6  7  2  0  0  0
  6 36  1  0  0  0
  7  8  1  0  0  0
  7 37  1  0  0  0
  8  9  2  0  0  0
  8 16  1  0  0  0
  9 38  1  0  0  0
 10 11  2  0  0  0
 10 15  1  0  0  0
 11 12  1  0  0  0
 11 39  1  0  0  0
 12 13  2  0  0  0
 12 40  1  0  0  0
 13 14  1  0  0  0
 13 41  1  0  0  0
 14 15  2  0  0  0
 14 42  1  0  0  0
 15 43  1  0  0  0
 16 17  1  0  0  0
 16 18  2  0  0  0
 17 19  1  0  0  0
 17 44  1  0  0  0
 19 20  1  0  0  0
 19 23  1  0  0  0
 19 45  1  0  0  0
 20 21  1  0  0  0
 20 22  2  0  0  0
 21 46  1  0  0  0
 23 24  1  0  0  0
 23 47  1  0  0  0
 23 48  1  0  0  0
 24 27  2  0  0  0
 24 30  1  0  0  0
 25 26  3  0  0  0
 27 28  1  0  0  0
 27 49  1  0  0  0
 28 29  1  0  0  0
 29 30  2  0  0  0
 29 50  1  0  0  0
M  END
> <chembl_id>
CHEMBL4224829

> <chembl_pref_name>
None

> <i_m_ct_stereo_status>
1

> <s_m_source_file>
sdf/inactives_sanitized.sdf

> <i_m_source_file_index>
648

> <i_lp_mmshare_version>
49012

> <i_f3d_flags>
0

> <s_epik_input>
bjFbY0hdc1tjSF1jMVtDSDJdW0NAQEhdKEMoPU8pW05IXUMyKEMjTilbQ0gyXVtDSDJdMilbTkhdQyg9TyljKFtjSF1bY0hdMylbY0hdW2NIXWMzLWM0W2NIXVtjSF1bY0hdW2NIXVtjSF00

> <s_epik_cmdline>
J2VwaWtfcHl0aG9uJywgJy1waHQnLCAnMC41JywgJy1waCcsICc3LjUnLCAnLW50JywgJy1tYScsICcyMDAnLCAnLWltYWUnLCAnPGluZmlsZS5tYWU+JywgJy1vbWFlJywgJzxvdXRmaWxlLm1hZT4n

> <r_lp_tautomer_probability>
1

> <r_epik_Ionization_Penalty>
  0.0000

> <r_epik_Ionization_Penalty_Charging>
  0.0000

> <r_epik_Ionization_Penalty_Neutral>
  0.0000

> <r_epik_State_Penalty>
 -0.0000

> <r_epik_Charging_Adjusted_Penalty>
0

> <i_epik_Tot_Q>
0

> <i_epik_Tot_abs_Q>
0

> <s_lp_Force_Field>
OPLS3e

> <r_lp_Energy>
34.143383

> <b_lp_Chiralities_Consistent>
1

> <s_lp_Variant>
sdf/inactives_sanitized.sdf:648-1

$$$$
sdf/inactives_sanitized.sdf:649
                    3D
 Schrodinger Suite 2020-1.
 53 56  0  0  1  0            999 V2000
    5.0242   -0.0984   -3.4609 C   0  0  0  0  0  0
    3.5263   -0.2550   -3.3052 C   0  0  0  0  0  0
    4.4354   -1.4708   -3.2662 C   0  0  0  0  0  0
   -4.1433   -1.0012    0.1887 C   0  0  0  0  0  0
   -5.1130   -0.0036    0.0284 C   0  0  0  0  0  0
   -4.6870    1.3261   -0.0814 C   0  0  0  0  0  0
   -3.3341    1.6507   -0.0317 C   0  0  0  0  0  0
   -2.3675    0.6502    0.1242 C   0  0  0  0  0  0
   -2.7893   -0.6824    0.2371 C   0  0  0  0  0  0
   -6.5670   -0.3496   -0.0214 C   0  0  0  0  0  0
   -7.4513    0.3801   -0.8300 C   0  0  0  0  0  0
   -8.8052    0.0583   -0.8780 C   0  0  0  0  0  0
   -9.2898   -0.9994   -0.1149 C   0  0  0  0  0  0
   -8.4310   -1.7361    0.6950 C   0  0  0  0  0  0
   -7.0777   -1.4117    0.7398 C   0  0  0  0  0  0
   -0.9025    1.0230    0.1853 C   0  0  0  0  0  0
   -0.0273    0.0416   -0.1067 N   0  0  0  0  0  0
   -0.5556    2.1700    0.4766 O   0  0  0  0  0  0
    1.4357    0.1569   -0.1048 C   0  0  2  0  0  0
    2.0035   -0.5088   -1.3727 C   0  0  0  0  0  0
    2.9166    0.1984   -2.0590 N   0  0  0  0  0  0
    1.6448   -1.6464   -1.6841 O   0  0  0  0  0  0
    2.0743   -0.4659    1.1661 C   0  0  0  0  0  0
    1.6044    0.2125    2.4478 C   0  0  0  0  0  0
    2.6776   -0.0989   -4.5000 C   0  0  0  0  0  0
    2.0113    0.0239   -5.4380 N   0  0  0  0  0  0
    2.1547    1.4266    2.7174 N   0  0  0  0  0  0
    1.7427    2.0759    3.8363 C   0  0  0  0  0  0
    0.7877    1.5516    4.7096 C   0  0  0  0  0  0
    0.2329    0.3037    4.4185 C   0  0  0  0  0  0
    0.6434   -0.3818    3.2734 C   0  0  0  0  0  0
    5.4252    0.1637   -4.4404 H   0  0  0  0  0  0
    5.6010    0.3385   -2.6449 H   0  0  0  0  0  0
    4.6042   -1.9795   -2.3165 H   0  0  0  0  0  0
    4.4264   -2.1607   -4.1106 H   0  0  0  0  0  0
   -4.4314   -2.0392    0.2692 H   0  0  0  0  0  0
   -5.4050    2.1251   -0.1946 H   0  0  0  0  0  0
   -3.0478    2.6896   -0.1172 H   0  0  0  0  0  0
   -2.0789   -1.4862    0.3684 H   0  0  0  0  0  0
   -7.0932    1.1982   -1.4378 H   0  0  0  0  0  0
   -9.4759    0.6256   -1.5065 H   0  0  0  0  0  0
  -10.3398   -1.2499   -0.1515 H   0  0  0  0  0  0
   -8.8128   -2.5543    1.2880 H   0  0  0  0  0  0
   -6.4294   -1.9888    1.3829 H   0  0  0  0  0  0
   -0.3857   -0.8665   -0.3641 H   0  0  0  0  0  0
    1.7163    1.2130   -0.1257 H   0  0  0  0  0  0
    3.1213    1.1441   -1.7700 H   0  0  0  0  0  0
    1.8483   -1.5329    1.2230 H   0  0  0  0  0  0
    3.1632   -0.3949    1.1203 H   0  0  0  0  0  0
    2.1939    3.0384    4.0271 H   0  0  0  0  0  0
    0.4842    2.0991    5.5896 H   0  0  0  0  0  0
   -0.5106   -0.1269    5.0729 H   0  0  0  0  0  0
    0.2171   -1.3441    3.0304 H   0  0  0  0  0  0
  1  2  1  0  0  0
  1  3  1  0  0  0
  1 32  1  0  0  0
  1 33  1  0  0  0
  2  3  1  0  0  0
  2 21  1  0  0  0
  2 25  1  0  0  0
  3 34  1  0  0  0
  3 35  1  0  0  0
  4  5  2  0  0  0
  4  9  1  0  0  0
  4 36  1  0  0  0
  5  6  1  0  0  0
  5 10  1  0  0  0
  6  7  2  0  0  0
  6 37  1  0  0  0
  7  8  1  0  0  0
  7 38  1  0  0  0
  8  9  2  0  0  0
  8 16  1  0  0  0
  9 39  1  0  0  0
 10 11  2  0  0  0
 10 15  1  0  0  0
 11 12  1  0  0  0
 11 40  1  0  0  0
 12 13  2  0  0  0
 12 41  1  0  0  0
 13 14  1  0  0  0
 13 42  1  0  0  0
 14 15  2  0  0  0
 14 43  1  0  0  0
 15 44  1  0  0  0
 16 17  1  0  0  0
 16 18  2  0  0  0
 17 19  1  0  0  0
 17 45  1  0  0  0
 19 20  1  0  0  0
 19 23  1  0  0  0
 19 46  1  0  0  0
 20 21  1  0  0  0
 20 22  2  0  0  0
 21 47  1  0  0  0
 23 24  1  0  0  0
 23 48  1  0  0  0
 23 49  1  0  0  0
 24 27  2  0  0  0
 24 31  1  0  0  0
 25 26  3  0  0  0
 27 28  1  0  0  0
 28 29  2  0  0  0
 28 50  1  0  0  0
 29 30  1  0  0  0
 29 51  1  0  0  0
 30 31  2  0  0  0
 30 52  1  0  0  0
 31 53  1  0  0  0
M  END
> <chembl_id>
CHEMBL4225099

> <chembl_pref_name>
None

> <i_m_ct_stereo_status>
1

> <s_m_source_file>
sdf/inactives_sanitized.sdf

> <i_m_source_file_index>
649

> <i_lp_mmshare_version>
49012

> <i_f3d_flags>
0

> <s_epik_input>
W2NIXTFbY0hdW2NIXVtjSF1uYzFbQ0gyXVtDQEBIXShDKD1PKVtOSF1DMihDI04pW0NIMl1bQ0gyXTIpW05IXUMoPU8pYyhbY0hdW2NIXTMpW2NIXVtjSF1jMy1jNFtjSF1bY0hdW2NIXVtjSF1bY0hdNA==

> <s_epik_cmdline>
J2VwaWtfcHl0aG9uJywgJy1waHQnLCAnMC41JywgJy1waCcsICc3LjUnLCAnLW50JywgJy1tYScsICcyMDAnLCAnLWltYWUnLCAnPGluZmlsZS5tYWU+JywgJy1vbWFlJywgJzxvdXRmaWxlLm1hZT4n

> <r_lp_tautomer_probability>
1

> <r_epik_Ionization_Penalty>
  0.0031

> <r_epik_Ionization_Penalty_Charging>
  0.0000

> <r_epik_Ionization_Penalty_Neutral>
  0.0031

> <r_epik_State_Penalty>
 -0.0000

> <r_epik_Charging_Adjusted_Penalty>
0

> <i_epik_Tot_Q>
0

> <i_epik_Tot_abs_Q>
0

> <s_lp_Force_Field>
OPLS3e

> <r_lp_Energy>
44.718467

> <b_lp_Chiralities_Consistent>
1

> <s_lp_Variant>
sdf/inactives_sanitized.sdf:649-1

$$$$
sdf/inactives_sanitized.sdf:650
                    3D
 Schrodinger Suite 2020-1.
 56 60  0  0  1  0            999 V2000
    5.3613   -0.7795   -2.9889 C   0  0  0  0  0  0
    3.8481   -0.8160   -2.9532 C   0  0  0  0  0  0
    4.6527   -2.0931   -2.7867 C   0  0  0  0  0  0
   -4.0811   -0.9123    0.2922 C   0  0  0  0  0  0
   -4.9907    0.0964   -0.0485 C   0  0  0  0  0  0
   -4.4898    1.3688   -0.3515 C   0  0  0  0  0  0
   -3.1224    1.6271   -0.3130 C   0  0  0  0  0  0
   -2.2165    0.6161    0.0286 C   0  0  0  0  0  0
   -2.7133   -0.6591    0.3335 C   0  0  0  0  0  0
   -6.4600   -0.1779   -0.0820 C   0  0  0  0  0  0
   -7.3824    0.8073    0.3005 C   0  0  0  0  0  0
   -8.7510    0.5514    0.2752 C   0  0  0  0  0  0
   -9.2117   -0.6954   -0.1361 C   0  0  0  0  0  0
   -8.3146   -1.6867   -0.5213 C   0  0  0  0  0  0
   -6.9469   -1.4277   -0.4930 C   0  0  0  0  0  0
   -0.7362    0.9216    0.0886 C   0  0  0  0  0  0
    0.0943   -0.1340   -0.0162 N   0  0  0  0  0  0
   -0.3382    2.0813    0.2198 O   0  0  0  0  0  0
    1.5601   -0.0882    0.0496 C   0  0  2  0  0  0
    2.1614   -0.8564   -1.1435 C   0  0  0  0  0  0
    3.1789   -0.2564   -1.7830 N   0  0  0  0  0  0
    1.7350   -1.9753   -1.4361 O   0  0  0  0  0  0
    2.0934   -0.6615    1.3889 C   0  0  0  0  0  0
    1.5598    0.0730    2.6052 C   0  0  0  0  0  0
    3.1129   -0.6561   -4.2203 C   0  0  0  0  0  0
    2.5359   -0.5303   -5.2155 N   0  0  0  0  0  0
    2.0186    1.7191    2.9974 S   0  0  0  0  0  0
    0.6835   -0.4682    3.4082 N   0  0  0  0  0  0
    0.3063    0.3787    4.4012 C   0  0  0  0  0  0
    0.9247    1.6547    4.3694 C   0  0  0  0  0  0
    0.6295    2.6293    5.3325 C   0  0  0  0  0  0
   -0.2940    2.3031    6.3264 C   0  0  0  0  0  0
   -0.9067    1.0507    6.3650 C   0  0  0  0  0  0
   -0.6204    0.0734    5.4102 C   0  0  0  0  0  0
    5.8590   -0.5943   -3.9413 H   0  0  0  0  0  0
    5.9029   -0.3481   -2.1463 H   0  0  0  0  0  0
    4.7040   -2.5667   -1.8056 H   0  0  0  0  0  0
    4.6584   -2.8200   -3.5994 H   0  0  0  0  0  0
   -4.4302   -1.9024    0.5460 H   0  0  0  0  0  0
   -5.1587    2.1704   -0.6284 H   0  0  0  0  0  0
   -2.7771    2.6229   -0.5534 H   0  0  0  0  0  0
   -2.0519   -1.4651    0.6176 H   0  0  0  0  0  0
   -7.0440    1.7777    0.6333 H   0  0  0  0  0  0
   -9.4518    1.3162    0.5762 H   0  0  0  0  0  0
  -10.2730   -0.8952   -0.1563 H   0  0  0  0  0  0
   -8.6778   -2.6520   -0.8420 H   0  0  0  0  0  0
   -6.2670   -2.2070   -0.8045 H   0  0  0  0  0  0
   -0.3027   -1.0528   -0.1496 H   0  0  0  0  0  0
    1.8975    0.9493   -0.0130 H   0  0  0  0  0  0
    3.4369    0.6831   -1.5171 H   0  0  0  0  0  0
    1.8497   -1.7245    1.4539 H   0  0  0  0  0  0
    3.1839   -0.6181    1.3992 H   0  0  0  0  0  0
    1.0993    3.6017    5.3093 H   0  0  0  0  0  0
   -0.5398    3.0352    7.0817 H   0  0  0  0  0  0
   -1.6168    0.8333    7.1494 H   0  0  0  0  0  0
   -1.1028   -0.8921    5.4521 H   0  0  0  0  0  0
  1  2  1  0  0  0
  1  3  1  0  0  0
  1 35  1  0  0  0
  1 36  1  0  0  0
  2  3  1  0  0  0
  2 21  1  0  0  0
  2 25  1  0  0  0
  3 37  1  0  0  0
  3 38  1  0  0  0
  4  5  2  0  0  0
  4  9  1  0  0  0
  4 39  1  0  0  0
  5  6  1  0  0  0
  5 10  1  0  0  0
  6  7  2  0  0  0
  6 40  1  0  0  0
  7  8  1  0  0  0
  7 41  1  0  0  0
  8  9  2  0  0  0
  8 16  1  0  0  0
  9 42  1  0  0  0
 10 11  2  0  0  0
 10 15  1  0  0  0
 11 12  1  0  0  0
 11 43  1  0  0  0
 12 13  2  0  0  0
 12 44  1  0  0  0
 13 14  1  0  0  0
 13 45  1  0  0  0
 14 15  2  0  0  0
 14 46  1  0  0  0
 15 47  1  0  0  0
 16 17  1  0  0  0
 16 18  2  0  0  0
 17 19  1  0  0  0
 17 48  1  0  0  0
 19 20  1  0  0  0
 19 23  1  0  0  0
 19 49  1  0  0  0
 20 21  1  0  0  0
 20 22  2  0  0  0
 21 50  1  0  0  0
 23 24  1  0  0  0
 23 51  1  0  0  0
 23 52  1  0  0  0
 24 27  1  0  0  0
 24 28  2  0  0  0
 25 26  3  0  0  0
 27 30  1  0  0  0
 28 29  1  0  0  0
 29 30  2  0  0  0
 29 34  1  0  0  0
 30 31  1  0  0  0
 31 32  2  0  0  0
 31 53  1  0  0  0
 32 33  1  0  0  0
 32 54  1  0  0  0
 33 34  2  0  0  0
 33 55  1  0  0  0
 34 56  1  0  0  0
M  END
> <chembl_id>
CHEMBL4228920

> <chembl_pref_name>
None

> <i_m_ct_stereo_status>
1

> <s_m_source_file>
sdf/inactives_sanitized.sdf

> <i_m_source_file_index>
650

> <i_lp_mmshare_version>
49012

> <i_f3d_flags>
0

> <s_epik_input>
W2NIXTFbY0hdW2NIXVtjSF1jKGMxMilzYyhuMilbQ0gyXVtDQEBIXShDKD1PKVtOSF1DMyhDI04pW0NIMl1bQ0gyXTMpW05IXUMoPU8pYyhbY0hdW2NIXTQpW2NIXVtjSF1jNC1jNVtjSF1bY0hdW2NIXVtjSF1bY0hdNQ==

> <s_epik_cmdline>
J2VwaWtfcHl0aG9uJywgJy1waHQnLCAnMC41JywgJy1waCcsICc3LjUnLCAnLW50JywgJy1tYScsICcyMDAnLCAnLWltYWUnLCAnPGluZmlsZS5tYWU+JywgJy1vbWFlJywgJzxvdXRmaWxlLm1hZT4n

> <r_lp_tautomer_probability>
1

> <r_epik_Ionization_Penalty>
  0.0000

> <r_epik_Ionization_Penalty_Charging>
  0.0000

> <r_epik_Ionization_Penalty_Neutral>
  0.0000

> <r_epik_State_Penalty>
 -0.0000

> <r_epik_Charging_Adjusted_Penalty>
0

> <i_epik_Tot_Q>
0

> <i_epik_Tot_abs_Q>
0

> <s_lp_Force_Field>
OPLS3e

> <r_lp_Energy>
41.263032

> <b_lp_Chiralities_Consistent>
1

> <s_lp_Variant>
sdf/inactives_sanitized.sdf:650-1

$$$$
sdf/inactives_sanitized.sdf:651
                    3D
 Schrodinger Suite 2020-1.
 57 60  0  0  1  0            999 V2000
   -3.1304   -2.4649    2.4586 C   0  0  0  0  0  0
   -1.8833   -2.8728    1.6940 C   0  0  0  0  0  0
   -3.2365   -3.4315    1.3085 C   0  0  0  0  0  0
   -1.2558    5.5694    0.7552 C   0  0  0  0  0  0
   -2.2934    6.1677    0.0295 C   0  0  0  0  0  0
   -3.0893    5.3528   -0.7854 C   0  0  0  0  0  0
   -2.8554    3.9834   -0.8754 C   0  0  0  0  0  0
   -1.8142    3.3893   -0.1520 C   0  0  0  0  0  0
   -1.0181    4.2006    0.6694 C   0  0  0  0  0  0
   -2.5450    7.6390    0.1239 C   0  0  0  0  0  0
   -3.8486    8.1514    0.0434 C   0  0  0  0  0  0
   -4.0841    9.5209    0.1318 C   0  0  0  0  0  0
   -3.0147   10.3947    0.3016 C   0  0  0  0  0  0
   -1.7136    9.9089    0.3833 C   0  0  0  0  0  0
   -1.4822    8.5387    0.2954 C   0  0  0  0  0  0
   -1.5812    1.8971   -0.2560 C   0  0  0  0  0  0
   -0.3696    1.4521    0.1348 N   0  0  0  0  0  0
   -2.4584    1.1504   -0.6973 O   0  0  0  0  0  0
    0.0729    0.0539    0.1506 C   0  0  2  0  0  0
   -0.6906   -0.7611    1.2209 C   0  0  0  0  0  0
   -1.2634   -1.9007    0.8006 N   0  0  0  0  0  0
   -0.6978   -0.3790    2.3922 O   0  0  0  0  0  0
    1.6105   -0.0348    0.3482 C   0  0  0  0  0  0
    2.1457   -1.4574    0.2096 C   0  0  0  0  0  0
   -0.9314   -3.7558    2.3913 C   0  0  0  0  0  0
   -0.1831   -4.4488    2.9378 N   0  0  0  0  0  0
    2.3395   -2.0346   -1.0494 C   0  0  0  0  0  0
    2.7954   -3.3509   -1.1425 C   0  0  0  0  0  0
    3.0495   -4.0636    0.0319 C   0  0  0  0  0  0
    2.8745   -3.5098    1.2672 N   0  0  0  0  0  0
    2.4320   -2.2297    1.3401 C   0  0  0  0  0  0
    3.4855   -5.3722   -0.0734 O   0  0  0  0  0  0
    3.7207   -6.1319    1.1113 C   0  0  0  0  0  0
   -3.2717   -2.8406    3.4725 H   0  0  0  0  0  0
   -3.5280   -1.4573    2.3298 H   0  0  0  0  0  0
   -3.7092   -3.0902    0.3868 H   0  0  0  0  0  0
   -3.4532   -4.4780    1.5243 H   0  0  0  0  0  0
   -0.6294    6.1613    1.4063 H   0  0  0  0  0  0
   -3.8937    5.7775   -1.3678 H   0  0  0  0  0  0
   -3.4917    3.3920   -1.5187 H   0  0  0  0  0  0
   -0.2127    3.7848    1.2576 H   0  0  0  0  0  0
   -4.6936    7.4895   -0.0777 H   0  0  0  0  0  0
   -5.0923    9.9034    0.0706 H   0  0  0  0  0  0
   -3.1957   11.4573    0.3703 H   0  0  0  0  0  0
   -0.8866   10.5918    0.5119 H   0  0  0  0  0  0
   -0.4639    8.1829    0.3506 H   0  0  0  0  0  0
    0.3022    2.1220    0.4788 H   0  0  0  0  0  0
   -0.1483   -0.3573   -0.8376 H   0  0  0  0  0  0
   -1.1493   -2.1776   -0.1636 H   0  0  0  0  0  0
    2.1147    0.5903   -0.3913 H   0  0  0  0  0  0
    1.8972    0.3753    1.3192 H   0  0  0  0  0  0
    2.1294   -1.4731   -1.9482 H   0  0  0  0  0  0
    2.9428   -3.8118   -2.1080 H   0  0  0  0  0  0
    2.2900   -1.8328    2.3349 H   0  0  0  0  0  0
    4.0402   -7.1379    0.8395 H   0  0  0  0  0  0
    2.8150   -6.2223    1.7134 H   0  0  0  0  0  0
    4.5082   -5.6864    1.7213 H   0  0  0  0  0  0
  1  2  1  0  0  0
  1  3  1  0  0  0
  1 34  1  0  0  0
  1 35  1  0  0  0
  2  3  1  0  0  0
  2 21  1  0  0  0
  2 25  1  0  0  0
  3 36  1  0  0  0
  3 37  1  0  0  0
  4  5  2  0  0  0
  4  9  1  0  0  0
  4 38  1  0  0  0
  5  6  1  0  0  0
  5 10  1  0  0  0
  6  7  2  0  0  0
  6 39  1  0  0  0
  7  8  1  0  0  0
  7 40  1  0  0  0
  8  9  2  0  0  0
  8 16  1  0  0  0
  9 41  1  0  0  0
 10 11  2  0  0  0
 10 15  1  0  0  0
 11 12  1  0  0  0
 11 42  1  0  0  0
 12 13  2  0  0  0
 12 43  1  0  0  0
 13 14  1  0  0  0
 13 44  1  0  0  0
 14 15  2  0  0  0
 14 45  1  0  0  0
 15 46  1  0  0  0
 16 17  1  0  0  0
 16 18  2  0  0  0
 17 19  1  0  0  0
 17 47  1  0  0  0
 19 20  1  0  0  0
 19 23  1  0  0  0
 19 48  1  0  0  0
 20 21  1  0  0  0
 20 22  2  0  0  0
 21 49  1  0  0  0
 23 24  1  0  0  0
 23 50  1  0  0  0
 23 51  1  0  0  0
 24 27  2  0  0  0
 24 31  1  0  0  0
 25 26  3  0  0  0
 27 28  1  0  0  0
 27 52  1  0  0  0
 28 29  2  0  0  0
 28 53  1  0  0  0
 29 30  1  0  0  0
 29 32  1  0  0  0
 30 31  2  0  0  0
 31 54  1  0  0  0
 32 33  1  0  0  0
 33 55  1  0  0  0
 33 56  1  0  0  0
 33 57  1  0  0  0
M  END
> <chembl_id>
CHEMBL4228343

> <chembl_pref_name>
None

> <s_m_source_file>
sdf/inactives_sanitized.sdf

> <i_m_source_file_index>
651

> <i_lp_mmshare_version>
49012

> <i_m_ct_stereo_status>
1

> <i_f3d_flags>
0

> <s_epik_input>
W2NIXTFuYyhPW0NIM10pW2NIXVtjSF1jMVtDSDJdW0NAQEhdKEMoPU8pW05IXUMyKEMjTilbQ0gyXVtDSDJdMilbTkhdQyg9TyljKFtjSF1bY0hdMylbY0hdW2NIXWMzLWM0W2NIXVtjSF1bY0hdW2NIXVtjSF00

> <s_epik_cmdline>
J2VwaWtfcHl0aG9uJywgJy1waHQnLCAnMC41JywgJy1waCcsICc3LjUnLCAnLW50JywgJy1tYScsICcyMDAnLCAnLWltYWUnLCAnPGluZmlsZS5tYWU+JywgJy1vbWFlJywgJzxvdXRmaWxlLm1hZT4n

> <r_lp_tautomer_probability>
1

> <r_epik_Ionization_Penalty>
  0.0000

> <r_epik_Ionization_Penalty_Charging>
  0.0000

> <r_epik_Ionization_Penalty_Neutral>
  0.0000

> <r_epik_State_Penalty>
 -0.0000

> <r_epik_Charging_Adjusted_Penalty>
0

> <i_epik_Tot_Q>
0

> <i_epik_Tot_abs_Q>
0

> <s_lp_Force_Field>
OPLS3e

> <r_lp_Energy>
47.02001

> <b_lp_Chiralities_Consistent>
1

> <s_lp_Variant>
sdf/inactives_sanitized.sdf:651-1

$$$$
sdf/inactives_sanitized.sdf:652
                    3D
 Schrodinger Suite 2020-1.
 68 72  0  0  1  0            999 V2000
   -2.1924   -4.1581    1.9477 C   0  0  0  0  0  0
   -2.1518   -2.6493    2.0677 C   0  0  0  0  0  0
   -1.2927   -3.5163    2.9710 C   0  0  0  0  0  0
   -1.0467    5.4943    0.4470 C   0  0  0  0  0  0
   -2.2849    6.0820    0.1598 C   0  0  0  0  0  0
   -3.3399    5.2489   -0.2320 C   0  0  0  0  0  0
   -3.1668    3.8711   -0.3268 C   0  0  0  0  0  0
   -1.9294    3.2839   -0.0338 C   0  0  0  0  0  0
   -0.8681    4.1167    0.3528 C   0  0  0  0  0  0
   -2.4778    7.5608    0.2734 C   0  0  0  0  0  0
   -3.3384    8.2418   -0.6004 C   0  0  0  0  0  0
   -3.5215    9.6180   -0.4938 C   0  0  0  0  0  0
   -2.8442   10.3292    0.4917 C   0  0  0  0  0  0
   -1.9864    9.6745    1.3699 C   0  0  0  0  0  0
   -1.8052    8.2982    1.2594 C   0  0  0  0  0  0
   -1.7709    1.7794   -0.1280 C   0  0  0  0  0  0
   -0.5213    1.2924    0.0125 N   0  0  0  0  0  0
   -2.7466    1.0533   -0.3344 O   0  0  0  0  0  0
   -0.1375   -0.1250   -0.0228 C   0  0  2  0  0  0
   -0.6599   -0.8694    1.2248 C   0  0  0  0  0  0
   -1.4998   -1.8937    1.0032 N   0  0  0  0  0  0
   -0.2834   -0.5212    2.3452 O   0  0  0  0  0  0
    1.3936   -0.3201   -0.1792 C   0  0  0  0  0  0
   -3.2955   -1.9643    2.6963 C   0  0  0  0  0  0
   -4.1933   -1.4261    3.1895 N   0  0  0  0  0  0
    1.9528    0.3924   -1.4074 C   0  0  0  0  0  0
    2.6991    1.5631   -1.2611 C   0  0  0  0  0  0
    3.2029    2.2106   -2.3855 C   0  0  0  0  0  0
    2.9720    1.7003   -3.6637 C   0  0  0  0  0  0
    2.2206    0.5228   -3.8047 C   0  0  0  0  0  0
    1.7171   -0.1273   -2.6812 C   0  0  0  0  0  0
    3.5111    2.4204   -4.7147 O   0  0  0  0  0  0
    3.3837    1.9604   -6.0619 C   0  0  1  0  0  0
    3.8291    3.0955   -7.0007 C   0  0  0  0  0  0
    4.9293    2.4900   -7.8860 N   0  3  0  0  0  0
    4.7372    0.9739   -7.8073 C   0  0  0  0  0  0
    4.2905    0.7607   -6.3657 C   0  0  0  0  0  0
   -3.0814   -4.6874    2.2920 H   0  0  0  0  0  0
   -1.7335   -4.6358    1.0814 H   0  0  0  0  0  0
   -0.2146   -3.5484    2.8099 H   0  0  0  0  0  0
   -1.5575   -3.6002    4.0254 H   0  0  0  0  0  0
   -0.2054    6.1044    0.7414 H   0  0  0  0  0  0
   -4.3132    5.6620   -0.4525 H   0  0  0  0  0  0
   -4.0114    3.2667   -0.6266 H   0  0  0  0  0  0
    0.1062    3.7144    0.5900 H   0  0  0  0  0  0
   -3.8662    7.7095   -1.3780 H   0  0  0  0  0  0
   -4.1852   10.1313   -1.1740 H   0  0  0  0  0  0
   -2.9856   11.3968    0.5758 H   0  0  0  0  0  0
   -1.4655   10.2308    2.1354 H   0  0  0  0  0  0
   -1.1442    7.8072    1.9584 H   0  0  0  0  0  0
    0.2339    1.9412    0.1771 H   0  0  0  0  0  0
   -0.6084   -0.5565   -0.9098 H   0  0  0  0  0  0
   -1.8094   -2.0770    0.0596 H   0  0  0  0  0  0
    1.9129    0.0424    0.7109 H   0  0  0  0  0  0
    1.6433   -1.3807   -0.2508 H   0  0  0  0  0  0
    2.8879    1.9752   -0.2802 H   0  0  0  0  0  0
    3.7783    3.1166   -2.2627 H   0  0  0  0  0  0
    2.0117    0.0963   -4.7731 H   0  0  0  0  0  0
    1.1394   -1.0322   -2.8023 H   0  0  0  0  0  0
    2.3315    1.7347   -6.2473 H   0  0  0  0  0  0
    3.0382    3.4100   -7.6832 H   0  0  0  0  0  0
    4.2702    3.9625   -6.5065 H   0  0  0  0  0  0
    4.8985    2.8366   -8.8346 H   0  0  0  0  0  0
    3.9556    0.7396   -8.5321 H   0  0  0  0  0  0
    5.6762    0.4901   -8.0778 H   0  0  0  0  0  0
    3.7514   -0.1829   -6.2809 H   0  0  0  0  0  0
    5.1445    0.7179   -5.6877 H   0  0  0  0  0  0
    5.8338    2.7297   -7.5043 H   0  0  0  0  0  0
  1  2  1  0  0  0
  1  3  1  0  0  0
  1 38  1  0  0  0
  1 39  1  0  0  0
  2  3  1  0  0  0
  2 21  1  0  0  0
  2 24  1  0  0  0
  3 40  1  0  0  0
  3 41  1  0  0  0
  4  5  2  0  0  0
  4  9  1  0  0  0
  4 42  1  0  0  0
  5  6  1  0  0  0
  5 10  1  0  0  0
  6  7  2  0  0  0
  6 43  1  0  0  0
  7  8  1  0  0  0
  7 44  1  0  0  0
  8  9  2  0  0  0
  8 16  1  0  0  0
  9 45  1  0  0  0
 10 11  2  0  0  0
 10 15  1  0  0  0
 11 12  1  0  0  0
 11 46  1  0  0  0
 12 13  2  0  0  0
 12 47  1  0  0  0
 13 14  1  0  0  0
 13 48  1  0  0  0
 14 15  2  0  0  0
 14 49  1  0  0  0
 15 50  1  0  0  0
 16 17  1  0  0  0
 16 18  2  0  0  0
 17 19  1  0  0  0
 17 51  1  0  0  0
 19 20  1  0  0  0
 19 23  1  0  0  0
 19 52  1  0  0  0
 20 21  1  0  0  0
 20 22  2  0  0  0
 21 53  1  0  0  0
 23 26  1  0  0  0
 23 54  1  0  0  0
 23 55  1  0  0  0
 24 25  3  0  0  0
 26 27  2  0  0  0
 26 31  1  0  0  0
 27 28  1  0  0  0
 27 56  1  0  0  0
 28 29  2  0  0  0
 28 57  1  0  0  0
 29 30  1  0  0  0
 29 32  1  0  0  0
 30 31  2  0  0  0
 30 58  1  0  0  0
 31 59  1  0  0  0
 32 33  1  0  0  0
 33 34  1  0  0  0
 33 37  1  0  0  0
 33 60  1  0  0  0
 34 35  1  0  0  0
 34 61  1  0  0  0
 34 62  1  0  0  0
 35 36  1  0  0  0
 35 63  1  0  0  0
 35 68  1  0  0  0
 36 37  1  0  0  0
 36 64  1  0  0  0
 36 65  1  0  0  0
 37 66  1  0  0  0
 37 67  1  0  0  0
M  CHG  1  35   1
M  END
> <chembl_id>
CHEMBL4225367

> <chembl_pref_name>
None

> <i_m_ct_stereo_status>
1

> <s_m_source_file>
sdf/inactives_sanitized.sdf

> <i_m_source_file_index>
652

> <i_lp_mmshare_version>
49012

> <i_f3d_flags>
0

> <s_epik_input>
W0NIMl0xW0NIMl1bTkhdW0NIMl1bQ0BASF0xT2MoW2NIXVtjSF0yKVtjSF1bY0hdYzJbQ0gyXVtDQEBIXShDKD1PKVtOSF1DMyhDI04pW0NIMl1bQ0gyXTMpW05IXUMoPU8pYyhbY0hdW2NIXTQpW2NIXVtjSF1jNC1jNVtjSF1bY0hdW2NIXVtjSF1bY0hdNQ==

> <s_epik_cmdline>
J2VwaWtfcHl0aG9uJywgJy1waHQnLCAnMC41JywgJy1waCcsICc3LjUnLCAnLW50JywgJy1tYScsICcyMDAnLCAnLWltYWUnLCAnPGluZmlsZS5tYWU+JywgJy1vbWFlJywgJzxvdXRmaWxlLm1hZT4n

> <r_lp_tautomer_probability>
1

> <r_epik_Ionization_Penalty>
  0.0021

> <r_epik_Ionization_Penalty_Charging>
  0.0021

> <r_epik_Ionization_Penalty_Neutral>
  0.0000

> <r_epik_State_Penalty>
 -0.0000

> <r_epik_Charging_Adjusted_Penalty>
0.00210347213270937

> <i_epik_Tot_Q>
1

> <i_epik_Tot_abs_Q>
1

> <s_lp_Force_Field>
OPLS3e

> <r_lp_Energy>
59.459885

> <b_lp_Chiralities_Consistent>
1

> <s_lp_Variant>
sdf/inactives_sanitized.sdf:652-1

$$$$
sdf/inactives_sanitized.sdf:653
                    3D
 Schrodinger Suite 2020-1.
 62 65  0  0  1  0            999 V2000
   -2.4844   -2.7043    2.8671 C   0  0  0  0  0  0
   -1.2996   -3.0854    1.9968 C   0  0  0  0  0  0
   -2.6354   -3.7758    1.8194 C   0  0  0  0  0  0
   -1.8975    5.1037    0.9824 C   0  0  0  0  0  0
   -2.1287    6.0114   -0.0589 C   0  0  0  0  0  0
   -1.9752    5.5631   -1.3767 C   0  0  0  0  0  0
   -1.5998    4.2504   -1.6471 C   0  0  0  0  0  0
   -1.3665    3.3463   -0.6040 C   0  0  0  0  0  0
   -1.5236    3.7893    0.7175 C   0  0  0  0  0  0
   -2.5317    7.4227    0.2292 C   0  0  0  0  0  0
   -3.4076    8.1079   -0.6262 C   0  0  0  0  0  0
   -3.7867    9.4205   -0.3576 C   0  0  0  0  0  0
   -3.2907   10.0638    0.7720 C   0  0  0  0  0  0
   -2.4189    9.4046    1.6330 C   0  0  0  0  0  0
   -2.0432    8.0914    1.3617 C   0  0  0  0  0  0
   -0.9583    1.9236   -0.9213 C   0  0  0  0  0  0
   -0.3744    1.2329    0.0774 N   0  0  0  0  0  0
   -1.1307    1.4558   -2.0493 O   0  0  0  0  0  0
    0.1410   -0.1390   -0.0081 C   0  0  2  0  0  0
   -0.3395   -0.9442    1.2144 C   0  0  0  0  0  0
   -0.8693   -2.1522    0.9604 N   0  0  0  0  0  0
   -0.1935   -0.4870    2.3498 O   0  0  0  0  0  0
    1.6896   -0.1846   -0.1175 C   0  0  0  0  0  0
   -0.2074   -3.8293    2.6495 C   0  0  0  0  0  0
    0.6503   -4.4137    3.1615 N   0  0  0  0  0  0
    2.2091    0.5839   -1.3289 C   0  0  0  0  0  0
    2.1759   -0.0009   -2.5934 C   0  0  0  0  0  0
    2.6170    0.7135   -3.7036 C   0  0  0  0  0  0
    3.0997    2.0287   -3.5788 C   0  0  0  0  0  0
    3.1330    2.5947   -2.2920 C   0  0  0  0  0  0
    2.6950    1.8820   -1.1800 C   0  0  0  0  0  0
    3.5468    2.7614   -4.7154 N   0  0  0  0  0  0
    3.7741    4.2032   -4.6106 C   0  0  0  0  0  0
    3.3250    2.2335   -6.0619 C   0  0  0  0  0  0
   -2.4813   -2.9973    3.9174 H   0  0  0  0  0  0
   -2.9781   -1.7453    2.7049 H   0  0  0  0  0  0
   -3.2342   -3.5551    0.9351 H   0  0  0  0  0  0
   -2.7376   -4.8121    2.1433 H   0  0  0  0  0  0
   -2.0191    5.4072    2.0118 H   0  0  0  0  0  0
   -2.1349    6.2348   -2.2074 H   0  0  0  0  0  0
   -1.4865    3.9477   -2.6787 H   0  0  0  0  0  0
   -1.3646    3.1246    1.5546 H   0  0  0  0  0  0
   -3.8127    7.6231   -1.5024 H   0  0  0  0  0  0
   -4.4649    9.9359   -1.0218 H   0  0  0  0  0  0
   -3.5846   11.0818    0.9818 H   0  0  0  0  0  0
   -2.0340    9.9096    2.5067 H   0  0  0  0  0  0
   -1.3582    7.6004    2.0373 H   0  0  0  0  0  0
   -0.2674    1.6768    0.9777 H   0  0  0  0  0  0
   -0.2576   -0.6198   -0.9049 H   0  0  0  0  0  0
   -0.8800   -2.4914    0.0095 H   0  0  0  0  0  0
    2.1489    0.2216    0.7863 H   0  0  0  0  0  0
    2.0363   -1.2177   -0.1882 H   0  0  0  0  0  0
    1.7979   -1.0049   -2.7206 H   0  0  0  0  0  0
    2.5639    0.2194   -4.6611 H   0  0  0  0  0  0
    3.4933    3.5979   -2.1245 H   0  0  0  0  0  0
    2.7215    2.3473   -0.2055 H   0  0  0  0  0  0
    4.5039    4.4336   -3.8342 H   0  0  0  0  0  0
    2.8442    4.7117   -4.3528 H   0  0  0  0  0  0
    4.1382    4.6292   -5.5461 H   0  0  0  0  0  0
    2.2563    2.1749   -6.2712 H   0  0  0  0  0  0
    3.7383    1.2300   -6.1659 H   0  0  0  0  0  0
    3.7838    2.8608   -6.8269 H   0  0  0  0  0  0
  1  2  1  0  0  0
  1  3  1  0  0  0
  1 35  1  0  0  0
  1 36  1  0  0  0
  2  3  1  0  0  0
  2 21  1  0  0  0
  2 24  1  0  0  0
  3 37  1  0  0  0
  3 38  1  0  0  0
  4  5  2  0  0  0
  4  9  1  0  0  0
  4 39  1  0  0  0
  5  6  1  0  0  0
  5 10  1  0  0  0
  6  7  2  0  0  0
  6 40  1  0  0  0
  7  8  1  0  0  0
  7 41  1  0  0  0
  8  9  2  0  0  0
  8 16  1  0  0  0
  9 42  1  0  0  0
 10 11  2  0  0  0
 10 15  1  0  0  0
 11 12  1  0  0  0
 11 43  1  0  0  0
 12 13  2  0  0  0
 12 44  1  0  0  0
 13 14  1  0  0  0
 13 45  1  0  0  0
 14 15  2  0  0  0
 14 46  1  0  0  0
 15 47  1  0  0  0
 16 17  1  0  0  0
 16 18  2  0  0  0
 17 19  1  0  0  0
 17 48  1  0  0  0
 19 20  1  0  0  0
 19 23  1  0  0  0
 19 49  1  0  0  0
 20 21  1  0  0  0
 20 22  2  0  0  0
 21 50  1  0  0  0
 23 26  1  0  0  0
 23 51  1  0  0  0
 23 52  1  0  0  0
 24 25  3  0  0  0
 26 27  2  0  0  0
 26 31  1  0  0  0
 27 28  1  0  0  0
 27 53  1  0  0  0
 28 29  2  0  0  0
 28 54  1  0  0  0
 29 30  1  0  0  0
 29 32  1  0  0  0
 30 31  2  0  0  0
 30 55  1  0  0  0
 31 56  1  0  0  0
 32 33  1  0  0  0
 32 34  1  0  0  0
 33 57  1  0  0  0
 33 58  1  0  0  0
 33 59  1  0  0  0
 34 60  1  0  0  0
 34 61  1  0  0  0
 34 62  1  0  0  0
M  END
> <chembl_id>
CHEMBL4228800

> <chembl_pref_name>
None

> <i_m_ct_stereo_status>
1

> <s_m_source_file>
sdf/inactives_sanitized.sdf

> <i_m_source_file_index>
653

> <i_lp_mmshare_version>
49012

> <i_f3d_flags>
0

> <s_epik_input>
W2NIXTFbY0hdYyhOKFtDSDNdKVtDSDNdKVtjSF1bY0hdYzFbQ0gyXVtDQEBIXShDKD1PKVtOSF1DMihDI04pW0NIMl1bQ0gyXTIpW05IXUMoPU8pYyhbY0hdW2NIXTMpW2NIXVtjSF1jMy1jNFtjSF1bY0hdW2NIXVtjSF1bY0hdNA==

> <s_epik_cmdline>
J2VwaWtfcHl0aG9uJywgJy1waHQnLCAnMC41JywgJy1waCcsICc3LjUnLCAnLW50JywgJy1tYScsICcyMDAnLCAnLWltYWUnLCAnPGluZmlsZS5tYWU+JywgJy1vbWFlJywgJzxvdXRmaWxlLm1hZT4n

> <r_lp_tautomer_probability>
1

> <r_epik_Ionization_Penalty>
  0.0034

> <r_epik_Ionization_Penalty_Charging>
  0.0000

> <r_epik_Ionization_Penalty_Neutral>
  0.0034

> <r_epik_State_Penalty>
 -0.0000

> <r_epik_Charging_Adjusted_Penalty>
0

> <i_epik_Tot_Q>
0

> <i_epik_Tot_abs_Q>
0

> <s_lp_Force_Field>
OPLS3e

> <r_lp_Energy>
60.957222

> <b_lp_Chiralities_Consistent>
1

> <s_lp_Variant>
sdf/inactives_sanitized.sdf:653-1

$$$$
sdf/inactives_sanitized.sdf:654
                    3D
 Schrodinger Suite 2020-1.
 23 23  0  0  1  0            999 V2000
   -2.1788    1.2033    0.0416 C   0  0  0  0  0  0
   -2.7999   -0.0470   -0.0503 C   0  0  0  0  0  0
   -2.0361   -1.2094   -0.1225 C   0  0  0  0  0  0
   -0.6448   -1.1342   -0.1022 C   0  0  0  0  0  0
    0.0059    0.1048   -0.0073 C   0  0  0  0  0  0
   -0.7795    1.2692    0.0597 C   0  0  0  0  0  0
   -3.0137    2.4807    0.1201 C   0  0  0  0  0  0
   -4.2073    2.2533    0.6716 F   0  0  0  0  0  0
   -2.3991    3.4190    0.8429 F   0  0  0  0  0  0
   -3.2008    2.9508   -1.1127 F   0  0  0  0  0  0
    1.5183    0.1624    0.0062 C   0  0  0  0  0  0
    2.0751    1.2935    0.4792 N   0  0  0  0  0  0
    3.5121    1.5477    0.5425 C   0  0  0  0  0  0
    4.1365    1.6405   -0.7892 C   0  0  0  0  0  0
    4.6265    1.7141   -1.8349 N   0  0  0  0  0  0
    2.1915   -0.7983   -0.3714 O   0  0  0  0  0  0
   -3.8774   -0.1243   -0.0713 H   0  0  0  0  0  0
   -2.5229   -2.1708   -0.1955 H   0  0  0  0  0  0
   -0.0784   -2.0532   -0.1598 H   0  0  0  0  0  0
   -0.3094    2.2407    0.1179 H   0  0  0  0  0  0
    1.4710    2.0638    0.7254 H   0  0  0  0  0  0
    3.6825    2.4918    1.0600 H   0  0  0  0  0  0
    4.0185    0.7709    1.1179 H   0  0  0  0  0  0
  1  6  2  0  0  0
  1  2  1  0  0  0
  1  7  1  0  0  0
  2  3  2  0  0  0
  2 17  1  0  0  0
  3  4  1  0  0  0
  3 18  1  0  0  0
  4  5  2  0  0  0
  4 19  1  0  0  0
  5 11  1  0  0  0
  5  6  1  0  0  0
  6 20  1  0  0  0
  7  8  1  0  0  0
  7  9  1  0  0  0
  7 10  1  0  0  0
 11 12  1  0  0  0
 11 16  2  0  0  0
 12 13  1  0  0  0
 12 21  1  0  0  0
 13 14  1  0  0  0
 13 22  1  0  0  0
 13 23  1  0  0  0
 14 15  3  0  0  0
M  END
> <chembl_id>
CHEMBL1288586

> <chembl_pref_name>
None

> <s_m_source_file>
sdf/inactives_sanitized.sdf

> <i_m_source_file_index>
654

> <i_lp_mmshare_version>
49012

> <i_m_ct_stereo_status>
1

> <i_f3d_flags>
0

> <s_epik_input>
RkMoRikoRiljMVtjSF1bY0hdW2NIXWMoW2NIXTEpQyg9TylbTkhdW0NIMl1DI04=

> <s_epik_cmdline>
J2VwaWtfcHl0aG9uJywgJy1waHQnLCAnMC41JywgJy1waCcsICc3LjUnLCAnLW50JywgJy1tYScsICcyMDAnLCAnLWltYWUnLCAnPGluZmlsZS5tYWU+JywgJy1vbWFlJywgJzxvdXRmaWxlLm1hZT4n

> <r_lp_tautomer_probability>
1

> <r_epik_Ionization_Penalty>
  0.0000

> <r_epik_Ionization_Penalty_Charging>
  0.0000

> <r_epik_Ionization_Penalty_Neutral>
  0.0000

> <r_epik_State_Penalty>
 -0.0000

> <r_epik_Charging_Adjusted_Penalty>
0

> <i_epik_Tot_Q>
0

> <i_epik_Tot_abs_Q>
0

> <s_lp_Force_Field>
OPLS3e

> <r_lp_Energy>
13.299788

> <b_lp_Chiralities_Consistent>
1

> <s_lp_Variant>
sdf/inactives_sanitized.sdf:654-1

$$$$
sdf/inactives_sanitized.sdf:655
                    3D
 Schrodinger Suite 2020-1.
 44 46  0  0  1  0            999 V2000
   -2.9991   -0.2298    0.5846 N   0  0  0  0  0  0
   -2.1086   -1.2167    0.3062 C   0  0  0  0  0  0
   -0.7530   -1.0663    0.3382 N   0  0  0  0  0  0
   -0.3039    0.1698    0.6826 C   0  0  0  0  0  0
   -1.1083    1.2291    0.9728 N   0  0  0  0  0  0
   -2.4375    0.9635    0.9082 C   0  0  0  0  0  0
   -2.6713   -2.4575   -0.0325 N   0  0  0  0  0  0
   -3.3426    2.0578    1.2159 C   0  0  0  0  0  0
   -4.0636    2.9296    1.4613 N   0  0  0  0  0  0
    1.0903    0.3213    0.6883 N   0  0  0  0  0  0
    1.9260    1.3642    1.1240 C   0  0  0  0  0  0
    3.2045    1.4558    0.5648 C   0  0  0  0  0  0
    4.0994    2.4646    0.9625 C   0  0  0  0  0  0
    3.6930    3.3750    1.9398 C   0  0  0  0  0  0
    2.4269    3.2853    2.5143 C   0  0  0  0  0  0
    1.5475    2.2824    2.1118 C   0  0  0  0  0  0
   -1.8716   -3.6798   -0.1234 C   0  0  0  0  0  0
   -2.5662   -4.6552   -1.0935 C   0  0  0  0  0  0
   -1.8111   -5.9936   -1.1765 C   0  0  0  0  0  0
   -1.6746   -6.5864    0.2387 N   0  3  0  0  0  0
   -0.9686   -5.6387    1.2269 C   0  0  0  0  0  0
   -1.7318   -4.3035    1.2813 C   0  0  0  0  0  0
    5.3733    2.6273    0.4533 O   0  0  0  0  0  0
    5.8407    1.7303   -0.5483 C   0  0  0  0  0  0
   -3.6635   -2.5549    0.1280 H   0  0  0  0  0  0
    1.5867   -0.5011    0.3784 H   0  0  0  0  0  0
    3.4930    0.7370   -0.1879 H   0  0  0  0  0  0
    4.3668    4.1563    2.2601 H   0  0  0  0  0  0
    2.1288    3.9906    3.2761 H   0  0  0  0  0  0
    0.5819    2.2257    2.5904 H   0  0  0  0  0  0
   -0.8805   -3.4352   -0.5098 H   0  0  0  0  0  0
   -3.5976   -4.8382   -0.7856 H   0  0  0  0  0  0
   -2.6191   -4.2144   -2.0904 H   0  0  0  0  0  0
   -2.3422   -6.7398   -1.7684 H   0  0  0  0  0  0
   -0.7960   -5.8829   -1.5609 H   0  0  0  0  0  0
   -2.5949   -6.8059    0.5936 H   0  0  0  0  0  0
   -0.9558   -6.1549    2.1874 H   0  0  0  0  0  0
    0.0541   -5.5258    0.8638 H   0  0  0  0  0  0
   -1.2001   -3.6186    1.9439 H   0  0  0  0  0  0
   -2.7133   -4.4624    1.7322 H   0  0  0  0  0  0
    6.8564    2.0055   -0.8319 H   0  0  0  0  0  0
    5.2234    1.7768   -1.4469 H   0  0  0  0  0  0
    5.8671    0.7020   -0.1843 H   0  0  0  0  0  0
   -1.1642   -7.4571    0.1877 H   0  0  0  0  0  0
  1  2  2  0  0  0
  1  6  1  0  0  0
  2  3  1  0  0  0
  2  7  1  0  0  0
  3  4  2  0  0  0
  4  5  1  0  0  0
  4 10  1  0  0  0
  5  6  2  0  0  0
  6  8  1  0  0  0
  7 17  1  0  0  0
  7 25  1  0  0  0
  8  9  3  0  0  0
 10 11  1  0  0  0
 10 26  1  0  0  0
 11 12  2  0  0  0
 11 16  1  0  0  0
 12 13  1  0  0  0
 12 27  1  0  0  0
 13 14  2  0  0  0
 13 23  1  0  0  0
 14 15  1  0  0  0
 14 28  1  0  0  0
 15 16  2  0  0  0
 15 29  1  0  0  0
 16 30  1  0  0  0
 17 18  1  0  0  0
 17 22  1  0  0  0
 17 31  1  0  0  0
 18 19  1  0  0  0
 18 32  1  0  0  0
 18 33  1  0  0  0
 19 20  1  0  0  0
 19 34  1  0  0  0
 19 35  1  0  0  0
 20 21  1  0  0  0
 20 36  1  0  0  0
 20 44  1  0  0  0
 21 22  1  0  0  0
 21 37  1  0  0  0
 21 38  1  0  0  0
 22 39  1  0  0  0
 22 40  1  0  0  0
 23 24  1  0  0  0
 24 41  1  0  0  0
 24 42  1  0  0  0
 24 43  1  0  0  0
M  CHG  1  20   1
M  END
> <chembl_id>
CHEMBL4247983

> <chembl_pref_name>
None

> <s_m_source_file>
sdf/inactives_sanitized.sdf

> <i_m_source_file_index>
655

> <i_lp_mmshare_version>
49012

> <i_m_ct_stereo_status>
1

> <i_f3d_flags>
0

> <s_epik_input>
W0NIMl0xW0NIMl1bTkhdW0NIMl1bQ0gyXVtDSF0xW05IXWMybmMoQyNOKW5jKG4yKVtOSF1jM1tjSF1jKE9bQ0gzXSlbY0hdW2NIXVtjSF0z

> <s_epik_cmdline>
J2VwaWtfcHl0aG9uJywgJy1waHQnLCAnMC41JywgJy1waCcsICc3LjUnLCAnLW50JywgJy1tYScsICcyMDAnLCAnLWltYWUnLCAnPGluZmlsZS5tYWU+JywgJy1vbWFlJywgJzxvdXRmaWxlLm1hZT4n

> <r_lp_tautomer_probability>
1

> <r_epik_Ionization_Penalty>
  0.0002

> <r_epik_Ionization_Penalty_Charging>
  0.0001

> <r_epik_Ionization_Penalty_Neutral>
  0.0001

> <r_epik_State_Penalty>
 -0.0000

> <r_epik_Charging_Adjusted_Penalty>
0.000134753931720609

> <i_epik_Tot_Q>
1

> <i_epik_Tot_abs_Q>
1

> <s_lp_Force_Field>
OPLS3e

> <r_lp_Energy>
30.473153

> <b_lp_Chiralities_Consistent>
1

> <s_lp_Variant>
sdf/inactives_sanitized.sdf:655-1

$$$$
sdf/inactives_sanitized.sdf:656
                    3D
 Schrodinger Suite 2020-1.
 47 50  0  0  1  0            999 V2000
   -9.8970    7.3877    0.7604 C   0  0  0  0  0  0
   -8.5786    6.9431    0.8119 C   0  0  0  0  0  0
   -8.2029    5.7459    0.1834 C   0  0  0  0  0  0
   -9.1807    5.0072   -0.5052 C   0  0  0  0  0  0
  -10.4988    5.4530   -0.5554 C   0  0  0  0  0  0
  -10.8525    6.6409    0.0777 C   0  0  0  0  0  0
  -12.1327    7.0732    0.0273 F   0  0  0  0  0  0
   -6.7606    5.2848    0.2492 C   0  0  0  0  0  0
   -6.5543    3.9722   -0.0093 N   0  0  0  0  0  0
   -5.8736    6.0848    0.5520 O   0  0  0  0  0  0
   -5.3564    3.2323   -0.0439 C   0  0  0  0  0  0
   -5.5015    1.8517   -0.1888 C   0  0  0  0  0  0
   -4.3819    1.0265   -0.2363 C   0  0  0  0  0  0
   -3.0936    1.5672   -0.1439 C   0  0  0  0  0  0
   -2.9517    2.9539   -0.0072 C   0  0  0  0  0  0
   -4.0688    3.7831    0.0406 C   0  0  0  0  0  0
   -1.8840    0.6748   -0.1882 C   0  0  0  0  0  0
   -0.6484    1.1350   -0.1384 N   0  0  0  0  0  0
    0.0667    0.0067   -0.2192 N   0  0  3  0  0  0
   -0.6624   -1.1089   -0.2542 N   0  0  0  0  0  0
   -1.9619   -0.6474   -0.2654 N   0  0  0  0  0  0
    1.5158   -0.0126   -0.0284 C   0  0  0  0  0  0
    1.9806   -0.0272    1.4392 C   0  0  0  0  0  0
    3.3191    0.0539    1.6099 N   0  0  0  0  0  0
    1.1599   -0.1164    2.3560 O   0  0  0  0  0  0
    4.0135    0.0645    2.8131 C   0  0  0  0  0  0
    5.4015    0.1633    2.8925 C   0  0  0  0  0  0
    5.6976    0.1402    4.2374 C   0  0  0  0  0  0
    4.5366    0.0320    4.9286 O   0  0  0  0  0  0
    3.4787   -0.0141    4.0195 N   0  0  0  0  0  0
    6.9704    0.2049    5.0439 C   0  0  0  0  0  0
  -10.1765    8.3098    1.2486 H   0  0  0  0  0  0
   -7.8542    7.5397    1.3488 H   0  0  0  0  0  0
   -8.9349    4.0859   -1.0136 H   0  0  0  0  0  0
  -11.2443    4.8796   -1.0865 H   0  0  0  0  0  0
   -7.3819    3.4237   -0.1900 H   0  0  0  0  0  0
   -6.4837    1.4061   -0.2615 H   0  0  0  0  0  0
   -4.5266   -0.0386   -0.3443 H   0  0  0  0  0  0
   -1.9718    3.4031    0.0632 H   0  0  0  0  0  0
   -3.8974    4.8427    0.1355 H   0  0  0  0  0  0
    1.9169   -0.8902   -0.5385 H   0  0  0  0  0  0
    1.9297    0.8684   -0.5222 H   0  0  0  0  0  0
    3.8892    0.1189    0.7797 H   0  0  0  0  0  0
    6.1016    0.2412    2.0739 H   0  0  0  0  0  0
    7.8479    0.3216    4.4078 H   0  0  0  0  0  0
    7.1174   -0.7006    5.6328 H   0  0  0  0  0  0
    6.9625    1.0450    5.7385 H   0  0  0  0  0  0
  1  2  2  0  0  0
  1  6  1  0  0  0
  1 32  1  0  0  0
  2  3  1  0  0  0
  2 33  1  0  0  0
  3  4  2  0  0  0
  3  8  1  0  0  0
  4  5  1  0  0  0
  4 34  1  0  0  0
  5  6  2  0  0  0
  5 35  1  0  0  0
  6  7  1  0  0  0
  8  9  1  0  0  0
  8 10  2  0  0  0
  9 11  1  0  0  0
  9 36  1  0  0  0
 11 12  2  0  0  0
 11 16  1  0  0  0
 12 13  1  0  0  0
 12 37  1  0  0  0
 13 14  2  0  0  0
 13 38  1  0  0  0
 14 15  1  0  0  0
 14 17  1  0  0  0
 15 16  2  0  0  0
 15 39  1  0  0  0
 16 40  1  0  0  0
 17 18  2  0  0  0
 17 21  1  0  0  0
 18 19  1  0  0  0
 19 20  1  0  0  0
 19 22  1  0  0  0
 20 21  2  0  0  0
 22 23  1  0  0  0
 22 41  1  0  0  0
 22 42  1  0  0  0
 23 24  1  0  0  0
 23 25  2  0  0  0
 24 26  1  0  0  0
 24 43  1  0  0  0
 26 27  1  0  0  0
 26 30  2  0  0  0
 27 28  2  0  0  0
 27 44  1  0  0  0
 28 29  1  0  0  0
 28 31  1  0  0  0
 29 30  1  0  0  0
 31 45  1  0  0  0
 31 46  1  0  0  0
 31 47  1  0  0  0
M  END
> <chembl_id>
CHEMBL3218778

> <chembl_pref_name>
None

> <s_m_source_file>
sdf/inactives_sanitized.sdf

> <i_m_source_file_index>
656

> <i_lp_mmshare_version>
49012

> <i_m_ct_stereo_status>
1

> <i_f3d_flags>
0

> <s_epik_input>
W2NIXTFbY0hdYyhGKVtjSF1bY0hdYzFDKD1PKVtOSF1jMltjSF1bY0hdYyhbY0hdW2NIXTIpLWMzbm4obm4zKVtDSDJdQyg9TylbTkhdYzRbY0hdYyhvbjQpW0NIM10=

> <s_epik_cmdline>
J2VwaWtfcHl0aG9uJywgJy1waHQnLCAnMC41JywgJy1waCcsICc3LjUnLCAnLW50JywgJy1tYScsICcyMDAnLCAnLWltYWUnLCAnPGluZmlsZS5tYWU+JywgJy1vbWFlJywgJzxvdXRmaWxlLm1hZT4n

> <r_lp_tautomer_probability>
1

> <r_epik_Ionization_Penalty>
  0.0003

> <r_epik_Ionization_Penalty_Charging>
  0.0000

> <r_epik_Ionization_Penalty_Neutral>
  0.0003

> <r_epik_State_Penalty>
 -0.0000

> <r_epik_Charging_Adjusted_Penalty>
0

> <i_epik_Tot_Q>
0

> <i_epik_Tot_abs_Q>
0

> <s_lp_Force_Field>
OPLS3e

> <r_lp_Energy>
27.753833

> <b_lp_Chiralities_Consistent>
1

> <s_lp_Variant>
sdf/inactives_sanitized.sdf:656-1

$$$$
sdf/inactives_sanitized.sdf:657
                    3D
 Schrodinger Suite 2020-1.
 59 63  0  0  1  0            999 V2000
    3.4009   -0.7388   -4.1736 C   0  0  0  0  0  0
    4.0665   -0.5743   -2.8186 C   0  0  0  0  0  0
    4.3939    0.3722   -3.9539 C   0  0  0  0  0  0
   -4.0296   -0.8400   -0.5858 C   0  0  0  0  0  0
   -4.9459    0.0573   -0.0224 C   0  0  0  0  0  0
   -4.4579    1.2552    0.5145 C   0  0  0  0  0  0
   -3.0970    1.5447    0.4989 C   0  0  0  0  0  0
   -2.1832    0.6390   -0.0516 C   0  0  0  0  0  0
   -2.6668   -0.5560   -0.6026 C   0  0  0  0  0  0
   -6.4082   -0.2556    0.0083 C   0  0  0  0  0  0
   -7.2099    0.1719    1.0776 C   0  0  0  0  0  0
   -8.5712   -0.1181    1.1102 C   0  0  0  0  0  0
   -9.1467   -0.8414    0.0703 C   0  0  0  0  0  0
   -8.3712   -1.2755   -1.0003 C   0  0  0  0  0  0
   -7.0098   -0.9837   -1.0291 C   0  0  0  0  0  0
   -0.7047    0.9566   -0.0193 C   0  0  0  0  0  0
    0.1249   -0.1030   -0.0720 N   0  0  0  0  0  0
   -0.3102    2.1174    0.1121 O   0  0  0  0  0  0
    1.5840   -0.0686    0.0711 C   0  0  2  0  0  0
    2.2430   -0.7305   -1.1544 C   0  0  0  0  0  0
    3.2676   -0.0625   -1.7097 N   0  0  0  0  0  0
    1.8496   -1.8305   -1.5482 O   0  0  0  0  0  0
    2.0452   -0.7602    1.3826 C   0  0  0  0  0  0
    5.0682   -1.5879   -2.4418 C   0  0  0  0  0  0
    5.8547   -2.3834   -2.1457 N   0  0  0  0  0  0
    1.5219   -0.0746    2.6336 C   0  0  0  0  0  0
    2.1767    0.8557    3.4196 C   0  0  0  0  0  0
    1.3673    1.2740    4.4431 N   0  0  0  0  0  0
    0.2228   -0.2414    3.2394 C   0  0  0  0  0  0
    0.1520    0.6322    4.3676 C   0  0  0  0  0  0
   -0.9909    0.7333    5.1679 C   0  0  0  0  0  0
   -2.0841   -0.0579    4.8145 C   0  0  0  0  0  0
   -2.0448   -0.9218    3.7228 C   0  0  0  0  0  0
   -0.8993   -1.0324    2.9371 C   0  0  0  0  0  0
   -3.1490   -1.6696    3.4121 O   0  0  0  0  0  0
    3.6900   -1.5814   -4.8028 H   0  0  0  0  0  0
    2.3475   -0.4794   -4.2852 H   0  0  0  0  0  0
    4.0237    1.3974   -3.9161 H   0  0  0  0  0  0
    5.3722    0.3007   -4.4303 H   0  0  0  0  0  0
   -4.3659   -1.7775   -1.0039 H   0  0  0  0  0  0
   -5.1330    1.9787    0.9475 H   0  0  0  0  0  0
   -2.7614    2.4763    0.9328 H   0  0  0  0  0  0
   -1.9969   -1.2807   -1.0432 H   0  0  0  0  0  0
   -6.7809    0.7247    1.9003 H   0  0  0  0  0  0
   -9.1767    0.2147    1.9403 H   0  0  0  0  0  0
  -10.2026   -1.0674    0.0947 H   0  0  0  0  0  0
   -8.8239   -1.8348   -1.8061 H   0  0  0  0  0  0
   -6.4275   -1.3208   -1.8739 H   0  0  0  0  0  0
   -0.2718   -1.0226   -0.1975 H   0  0  0  0  0  0
    1.9260    0.9680    0.1228 H   0  0  0  0  0  0
    3.5834    0.7943   -1.2784 H   0  0  0  0  0  0
    1.7438   -1.8095    1.3827 H   0  0  0  0  0  0
    3.1365   -0.7776    1.4158 H   0  0  0  0  0  0
    3.1691    1.2723    3.3263 H   0  0  0  0  0  0
    1.6607    1.9609    5.1229 H   0  0  0  0  0  0
   -1.0374    1.3979    6.0180 H   0  0  0  0  0  0
   -2.9860    0.0053    5.4062 H   0  0  0  0  0  0
   -0.8833   -1.7045    2.0919 H   0  0  0  0  0  0
   -3.0228   -2.2171    2.6340 H   0  0  0  0  0  0
  1  2  1  0  0  0
  1  3  1  0  0  0
  1 36  1  0  0  0
  1 37  1  0  0  0
  2  3  1  0  0  0
  2 21  1  0  0  0
  2 24  1  0  0  0
  3 38  1  0  0  0
  3 39  1  0  0  0
  4  5  2  0  0  0
  4  9  1  0  0  0
  4 40  1  0  0  0
  5  6  1  0  0  0
  5 10  1  0  0  0
  6  7  2  0  0  0
  6 41  1  0  0  0
  7  8  1  0  0  0
  7 42  1  0  0  0
  8  9  2  0  0  0
  8 16  1  0  0  0
  9 43  1  0  0  0
 10 11  2  0  0  0
 10 15  1  0  0  0
 11 12  1  0  0  0
 11 44  1  0  0  0
 12 13  2  0  0  0
 12 45  1  0  0  0
 13 14  1  0  0  0
 13 46  1  0  0  0
 14 15  2  0  0  0
 14 47  1  0  0  0
 15 48  1  0  0  0
 16 17  1  0  0  0
 16 18  2  0  0  0
 17 19  1  0  0  0
 17 49  1  0  0  0
 19 20  1  0  0  0
 19 23  1  0  0  0
 19 50  1  0  0  0
 20 21  1  0  0  0
 20 22  2  0  0  0
 21 51  1  0  0  0
 23 26  1  0  0  0
 23 52  1  0  0  0
 23 53  1  0  0  0
 24 25  3  0  0  0
 26 27  2  0  0  0
 26 29  1  0  0  0
 27 28  1  0  0  0
 27 54  1  0  0  0
 28 30  1  0  0  0
 28 55  1  0  0  0
 29 30  2  0  0  0
 29 34  1  0  0  0
 30 31  1  0  0  0
 31 32  2  0  0  0
 31 56  1  0  0  0
 32 33  1  0  0  0
 32 57  1  0  0  0
 33 34  2  0  0  0
 33 35  1  0  0  0
 34 58  1  0  0  0
 35 59  1  0  0  0
M  END
> <chembl_id>
CHEMBL4227965

> <chembl_pref_name>
None

> <i_m_ct_stereo_status>
1

> <s_m_source_file>
sdf/inactives_sanitized.sdf

> <i_m_source_file_index>
657

> <i_lp_mmshare_version>
49012

> <i_f3d_flags>
0

> <s_epik_input>
W2NIXTFjKFtPSF0pW2NIXVtjSF1jKGMxMilbbkhdW2NIXWMyW0NIMl1bQ0BASF0oQyg9TylbTkhdQzMoQyNOKVtDSDJdW0NIMl0zKVtOSF1DKD1PKWMoW2NIXVtjSF00KVtjSF1bY0hdYzQtYzVbY0hdW2NIXVtjSF1bY0hdW2NIXTU=

> <s_epik_cmdline>
J2VwaWtfcHl0aG9uJywgJy1waHQnLCAnMC41JywgJy1waCcsICc3LjUnLCAnLW50JywgJy1tYScsICcyMDAnLCAnLWltYWUnLCAnPGluZmlsZS5tYWU+JywgJy1vbWFlJywgJzxvdXRmaWxlLm1hZT4n

> <r_lp_tautomer_probability>
1

> <r_epik_Ionization_Penalty>
  0.0014

> <r_epik_Ionization_Penalty_Charging>
  0.0000

> <r_epik_Ionization_Penalty_Neutral>
  0.0014

> <r_epik_State_Penalty>
 -0.0000

> <r_epik_Charging_Adjusted_Penalty>
0

> <i_epik_Tot_Q>
0

> <i_epik_Tot_abs_Q>
0

> <s_lp_Force_Field>
OPLS3e

> <r_lp_Energy>
42.508901

> <b_lp_Chiralities_Consistent>
1

> <s_lp_Variant>
sdf/inactives_sanitized.sdf:657-1

$$$$
sdf/inactives_sanitized.sdf:658
                    3D
 Schrodinger Suite 2020-1.
 53 56  0  0  1  0            999 V2000
    4.8755    0.0486   -3.6293 C   0  0  0  0  0  0
    3.4167   -0.2464   -3.3509 C   0  0  0  0  0  0
    4.4474   -1.3609   -3.3158 C   0  0  0  0  0  0
   -4.1096   -0.9155   -0.3901 C   0  0  0  0  0  0
   -5.0767    0.0124    0.0155 C   0  0  0  0  0  0
   -4.6440    1.2593    0.4832 C   0  0  0  0  0  0
   -3.2887    1.5704    0.5444 C   0  0  0  0  0  0
   -2.3224    0.6410    0.1390 C   0  0  0  0  0  0
   -2.7530   -0.6093   -0.3311 C   0  0  0  0  0  0
   -6.5341   -0.3191   -0.0499 C   0  0  0  0  0  0
   -7.4292    0.1885    0.9037 C   0  0  0  0  0  0
   -8.7860   -0.1185    0.8442 C   0  0  0  0  0  0
   -9.2630   -0.9390   -0.1733 C   0  0  0  0  0  0
   -8.3935   -1.4542   -1.1296 C   0  0  0  0  0  0
   -7.0374   -1.1450   -1.0664 C   0  0  0  0  0  0
   -0.8523    1.0047    0.2107 C   0  0  0  0  0  0
    0.0255    0.0177   -0.0554 N   0  0  0  0  0  0
   -0.4990    2.1473    0.5120 O   0  0  0  0  0  0
    1.4886    0.1320   -0.0455 C   0  0  2  0  0  0
    2.0468   -0.5376   -1.3153 C   0  0  0  0  0  0
    2.8507    0.2134   -2.0864 N   0  0  0  0  0  0
    1.7713   -1.7142   -1.5588 O   0  0  0  0  0  0
    2.1315   -0.4823    1.2271 C   0  0  0  0  0  0
    1.6291    0.1719    2.5089 C   0  0  0  0  0  0
    2.4740   -0.2487   -4.4839 C   0  0  0  0  0  0
    1.7336   -0.2504   -5.3732 N   0  0  0  0  0  0
    0.6203   -0.4238    3.2753 C   0  0  0  0  0  0
    0.1688    0.2101    4.4343 C   0  0  0  0  0  0
    0.7477    1.4280    4.7955 C   0  0  0  0  0  0
    1.7294    2.0227    4.0703 N   0  0  0  0  0  0
    2.1545    1.3934    2.9448 C   0  0  0  0  0  0
    5.1771    0.2871   -4.6499 H   0  0  0  0  0  0
    5.4604    0.5906   -2.8853 H   0  0  0  0  0  0
    4.7349   -1.7899   -2.3551 H   0  0  0  0  0  0
    4.4503   -2.0996   -4.1179 H   0  0  0  0  0  0
   -4.4014   -1.8921   -0.7476 H   0  0  0  0  0  0
   -5.3581    2.0073    0.7946 H   0  0  0  0  0  0
   -3.0018    2.5463    0.9102 H   0  0  0  0  0  0
   -2.0494   -1.3615   -0.6572 H   0  0  0  0  0  0
   -7.0780    0.8184    1.7079 H   0  0  0  0  0  0
   -9.4648    0.2762    1.5857 H   0  0  0  0  0  0
  -10.3152   -1.1778   -0.2209 H   0  0  0  0  0  0
   -8.7695   -2.0891   -1.9185 H   0  0  0  0  0  0
   -6.3811   -1.5462   -1.8248 H   0  0  0  0  0  0
   -0.3314   -0.8942   -0.3005 H   0  0  0  0  0  0
    1.7656    1.1888   -0.0702 H   0  0  0  0  0  0
    2.9846    1.1869   -1.8535 H   0  0  0  0  0  0
    1.9348   -1.5555    1.2765 H   0  0  0  0  0  0
    3.2180   -0.3797    1.1918 H   0  0  0  0  0  0
    0.1834   -1.3642    2.9719 H   0  0  0  0  0  0
   -0.6116   -0.2315    5.0362 H   0  0  0  0  0  0
    0.4244    1.9481    5.6850 H   0  0  0  0  0  0
    2.9307    1.8939    2.3843 H   0  0  0  0  0  0
  1  2  1  0  0  0
  1  3  1  0  0  0
  1 32  1  0  0  0
  1 33  1  0  0  0
  2  3  1  0  0  0
  2 21  1  0  0  0
  2 25  1  0  0  0
  3 34  1  0  0  0
  3 35  1  0  0  0
  4  5  2  0  0  0
  4  9  1  0  0  0
  4 36  1  0  0  0
  5  6  1  0  0  0
  5 10  1  0  0  0
  6  7  2  0  0  0
  6 37  1  0  0  0
  7  8  1  0  0  0
  7 38  1  0  0  0
  8  9  2  0  0  0
  8 16  1  0  0  0
  9 39  1  0  0  0
 10 11  2  0  0  0
 10 15  1  0  0  0
 11 12  1  0  0  0
 11 40  1  0  0  0
 12 13  2  0  0  0
 12 41  1  0  0  0
 13 14  1  0  0  0
 13 42  1  0  0  0
 14 15  2  0  0  0
 14 43  1  0  0  0
 15 44  1  0  0  0
 16 17  1  0  0  0
 16 18  2  0  0  0
 17 19  1  0  0  0
 17 45  1  0  0  0
 19 20  1  0  0  0
 19 23  1  0  0  0
 19 46  1  0  0  0
 20 21  1  0  0  0
 20 22  2  0  0  0
 21 47  1  0  0  0
 23 24  1  0  0  0
 23 48  1  0  0  0
 23 49  1  0  0  0
 24 27  2  0  0  0
 24 31  1  0  0  0
 25 26  3  0  0  0
 27 28  1  0  0  0
 27 50  1  0  0  0
 28 29  2  0  0  0
 28 51  1  0  0  0
 29 30  1  0  0  0
 29 52  1  0  0  0
 30 31  2  0  0  0
 31 53  1  0  0  0
M  END
> <chembl_id>
CHEMBL4228861

> <chembl_pref_name>
None

> <i_m_ct_stereo_status>
1

> <s_m_source_file>
sdf/inactives_sanitized.sdf

> <i_m_source_file_index>
658

> <i_lp_mmshare_version>
49012

> <i_f3d_flags>
0

> <s_epik_input>
W2NIXTFuW2NIXVtjSF1bY0hdYzFbQ0gyXVtDQEBIXShDKD1PKVtOSF1DMihDI04pW0NIMl1bQ0gyXTIpW05IXUMoPU8pYyhbY0hdW2NIXTMpW2NIXVtjSF1jMy1jNFtjSF1bY0hdW2NIXVtjSF1bY0hdNA==

> <s_epik_cmdline>
J2VwaWtfcHl0aG9uJywgJy1waHQnLCAnMC41JywgJy1waCcsICc3LjUnLCAnLW50JywgJy1tYScsICcyMDAnLCAnLWltYWUnLCAnPGluZmlsZS5tYWU+JywgJy1vbWFlJywgJzxvdXRmaWxlLm1hZT4n

> <r_lp_tautomer_probability>
1

> <r_epik_Ionization_Penalty>
  0.0016

> <r_epik_Ionization_Penalty_Charging>
  0.0000

> <r_epik_Ionization_Penalty_Neutral>
  0.0016

> <r_epik_State_Penalty>
 -0.0000

> <r_epik_Charging_Adjusted_Penalty>
0

> <i_epik_Tot_Q>
0

> <i_epik_Tot_abs_Q>
0

> <s_lp_Force_Field>
OPLS3e

> <r_lp_Energy>
46.968981

> <b_lp_Chiralities_Consistent>
1

> <s_lp_Variant>
sdf/inactives_sanitized.sdf:658-1

$$$$
sdf/inactives_sanitized.sdf:659
                    3D
 Schrodinger Suite 2020-1.
 56 58  0  0  1  0            999 V2000
   -3.2061   -2.2996    2.5575 C   0  0  0  0  0  0
   -1.8884   -2.6654    1.8977 C   0  0  0  0  0  0
   -3.1589   -3.4040    1.5345 C   0  0  0  0  0  0
   -1.3157    5.8341    0.8642 C   0  0  0  0  0  0
   -2.3414    6.4909    0.1724 C   0  0  0  0  0  0
   -3.2031    5.7242   -0.6223 C   0  0  0  0  0  0
   -3.0439    4.3454   -0.7269 C   0  0  0  0  0  0
   -2.0126    3.6942   -0.0402 C   0  0  0  0  0  0
   -1.1517    4.4554    0.7630 C   0  0  0  0  0  0
   -2.5129    7.9730    0.2804 C   0  0  0  0  0  0
   -3.7892    8.5535    0.2321 C   0  0  0  0  0  0
   -3.9504    9.9331    0.3302 C   0  0  0  0  0  0
   -2.8331   10.7489    0.4778 C   0  0  0  0  0  0
   -1.5578   10.1950    0.5289 C   0  0  0  0  0  0
   -1.4008    8.8149    0.4311 C   0  0  0  0  0  0
   -1.8569    2.1951   -0.1655 C   0  0  0  0  0  0
   -0.6311    1.6993    0.0962 N   0  0  0  0  0  0
   -2.8045    1.4890   -0.5183 O   0  0  0  0  0  0
   -0.2527    0.2812    0.0458 C   0  0  2  0  0  0
   -0.8705   -0.5189    1.2140 C   0  0  0  0  0  0
   -1.3273   -1.7455    0.9137 N   0  0  0  0  0  0
   -0.8987   -0.0362    2.3475 O   0  0  0  0  0  0
    1.2919    0.1624    0.0427 C   0  0  0  0  0  0
    1.9468    0.6710   -1.2552 C   0  0  0  0  0  0
    3.4717    0.4877   -1.2631 C   0  0  0  0  0  0
   -0.8926   -3.3550    2.7370 C   0  0  0  0  0  0
   -0.1103   -3.8963    3.3957 N   0  0  0  0  0  0
    4.1179    0.9978   -2.5591 C   0  0  0  0  0  0
    5.5773    0.7965   -2.5484 N   0  3  0  0  0  0
   -3.3611   -2.5628    3.6042 H   0  0  0  0  0  0
   -3.6947   -1.3626    2.2880 H   0  0  0  0  0  0
   -3.6160   -3.2274    0.5603 H   0  0  0  0  0  0
   -3.2827   -4.4336    1.8714 H   0  0  0  0  0  0
   -0.6409    6.3879    1.5002 H   0  0  0  0  0  0
   -4.0012    6.1936   -1.1783 H   0  0  0  0  0  0
   -3.7284    3.7916   -1.3541 H   0  0  0  0  0  0
   -0.3532    3.9916    1.3243 H   0  0  0  0  0  0
   -4.6705    7.9376    0.1283 H   0  0  0  0  0  0
   -4.9384   10.3680    0.2930 H   0  0  0  0  0  0
   -2.9566   11.8194    0.5530 H   0  0  0  0  0  0
   -0.6935   10.8327    0.6415 H   0  0  0  0  0  0
   -0.4014    8.4063    0.4620 H   0  0  0  0  0  0
    0.0975    2.3350    0.3852 H   0  0  0  0  0  0
   -0.6324   -0.1284   -0.8935 H   0  0  0  0  0  0
   -1.1986   -2.1027   -0.0218 H   0  0  0  0  0  0
    1.7127    0.6961    0.8974 H   0  0  0  0  0  0
    1.5795   -0.8826    0.1755 H   0  0  0  0  0  0
    1.5146    0.1450   -2.1076 H   0  0  0  0  0  0
    1.7103    1.7263   -1.3959 H   0  0  0  0  0  0
    3.9028    1.0109   -0.4084 H   0  0  0  0  0  0
    3.7096   -0.5683   -1.1275 H   0  0  0  0  0  0
    3.6999    0.4774   -3.4216 H   0  0  0  0  0  0
    3.9116    2.0604   -2.6926 H   0  0  0  0  0  0
    5.9732    1.1418   -3.4114 H   0  0  0  0  0  0
    5.7829   -0.1883   -2.4573 H   0  0  0  0  0  0
    5.9828    1.2971   -1.7704 H   0  0  0  0  0  0
  1  2  1  0  0  0
  1  3  1  0  0  0
  1 30  1  0  0  0
  1 31  1  0  0  0
  2  3  1  0  0  0
  2 21  1  0  0  0
  2 26  1  0  0  0
  3 32  1  0  0  0
  3 33  1  0  0  0
  4  5  2  0  0  0
  4  9  1  0  0  0
  4 34  1  0  0  0
  5  6  1  0  0  0
  5 10  1  0  0  0
  6  7  2  0  0  0
  6 35  1  0  0  0
  7  8  1  0  0  0
  7 36  1  0  0  0
  8  9  2  0  0  0
  8 16  1  0  0  0
  9 37  1  0  0  0
 10 11  2  0  0  0
 10 15  1  0  0  0
 11 12  1  0  0  0
 11 38  1  0  0  0
 12 13  2  0  0  0
 12 39  1  0  0  0
 13 14  1  0  0  0
 13 40  1  0  0  0
 14 15  2  0  0  0
 14 41  1  0  0  0
 15 42  1  0  0  0
 16 17  1  0  0  0
 16 18  2  0  0  0
 17 19  1  0  0  0
 17 43  1  0  0  0
 19 20  1  0  0  0
 19 23  1  0  0  0
 19 44  1  0  0  0
 20 21  1  0  0  0
 20 22  2  0  0  0
 21 45  1  0  0  0
 23 24  1  0  0  0
 23 46  1  0  0  0
 23 47  1  0  0  0
 24 25  1  0  0  0
 24 48  1  0  0  0
 24 49  1  0  0  0
 25 28  1  0  0  0
 25 50  1  0  0  0
 25 51  1  0  0  0
 26 27  3  0  0  0
 28 29  1  0  0  0
 28 52  1  0  0  0
 28 53  1  0  0  0
 29 54  1  0  0  0
 29 55  1  0  0  0
 29 56  1  0  0  0
M  CHG  1  29   1
M  END
> <chembl_id>
CHEMBL4228399

> <chembl_pref_name>
None

> <i_m_ct_stereo_status>
1

> <s_m_source_file>
sdf/inactives_sanitized.sdf

> <i_m_source_file_index>
659

> <i_lp_mmshare_version>
49012

> <i_f3d_flags>
0

> <s_epik_input>
W0NIMl0xW0NIMl1DMShDI04pW05IXUMoPU8pW0NASF0oW0NIMl1bQ0gyXVtDSDJdW0NIMl1bTkgyXSlbTkhdQyg9TyljKFtjSF1bY0hdMilbY0hdW2NIXWMyLWMzW2NIXVtjSF1bY0hdW2NIXVtjSF0z

> <s_epik_cmdline>
J2VwaWtfcHl0aG9uJywgJy1waHQnLCAnMC41JywgJy1waCcsICc3LjUnLCAnLW50JywgJy1tYScsICcyMDAnLCAnLWltYWUnLCAnPGluZmlsZS5tYWU+JywgJy1vbWFlJywgJzxvdXRmaWxlLm1hZT4n

> <r_lp_tautomer_probability>
1

> <r_epik_Ionization_Penalty>
  0.0014

> <r_epik_Ionization_Penalty_Charging>
  0.0014

> <r_epik_Ionization_Penalty_Neutral>
  0.0000

> <r_epik_State_Penalty>
 -0.0000

> <r_epik_Charging_Adjusted_Penalty>
0.00142768636586203

> <i_epik_Tot_Q>
1

> <i_epik_Tot_abs_Q>
1

> <s_lp_Force_Field>
OPLS3e

> <r_lp_Energy>
37.715549

> <b_lp_Chiralities_Consistent>
1

> <s_lp_Variant>
sdf/inactives_sanitized.sdf:659-1

$$$$
sdf/inactives_sanitized.sdf:660
                    3D
 Schrodinger Suite 2020-1.
 66 70  0  0  1  0            999 V2000
   -2.5379    2.8952    0.2372 C   0  0  2  0  0  0
   -2.2243    1.6826   -0.6263 C   0  0  0  0  0  0
   -1.6775    0.6290    0.3419 C   0  0  2  0  0  0
   -2.3360    0.9713    1.6188 N   0  0  0  0  0  0
   -2.7291    2.3907    1.6743 C   0  0  0  0  0  0
   -4.0298    3.8744   -0.4007 S   0  0  0  0  0  0
   -0.1388    0.6846    0.4618 C   0  0  0  0  0  0
    0.5397   -0.2481   -0.2318 N   0  0  0  0  0  0
    0.4142    1.6036    1.0695 O   0  0  0  0  0  0
    2.0004   -0.3624   -0.3366 C   0  0  2  0  0  0
    2.3130    0.0388   -1.7788 C   0  0  0  0  0  0
    2.4910   -1.7825    0.0506 C   0  0  0  0  0  0
    4.0208   -1.9479    0.0801 C   0  0  0  0  0  0
    2.3557    1.4616   -2.1251 C   0  0  0  0  0  0
    2.5188   -0.8159   -2.6436 O   0  0  0  0  0  0
    2.2701    2.4973   -1.3113 N   0  0  0  0  0  0
    2.4965    1.7788   -3.4516 O   0  0  0  0  0  0
    2.4890    3.1395   -3.4653 C   0  0  0  0  0  0
    2.3467    3.5797   -2.1409 C   0  0  0  0  0  0
    2.3068    4.9564   -1.8717 C   0  0  0  0  0  0
    2.4137    5.8388   -2.9534 C   0  0  0  0  0  0
    2.5563    5.3746   -4.2660 C   0  0  0  0  0  0
    2.5975    4.0079   -4.5562 C   0  0  0  0  0  0
   -4.1839    5.2084    0.7860 C   0  0  0  0  0  0
   -3.6741    4.4760   -1.6911 O   0  0  0  0  0  0
   -5.2294    3.0364   -0.2842 O   0  0  0  0  0  0
   -5.0601    5.0871    1.8682 C   0  0  0  0  0  0
   -5.1621    6.1220    2.7939 C   0  0  0  0  0  0
   -4.3904    7.2712    2.6330 C   0  0  0  0  0  0
   -3.5152    7.3953    1.5554 C   0  0  0  0  0  0
   -3.4098    6.3607    0.6297 C   0  0  0  0  0  0
   -2.8165    0.0153    2.4628 C   0  0  0  0  0  0
   -2.6836   -1.1897    2.2341 O   0  0  0  0  0  0
   -3.5482    0.4325    3.7211 C   0  0  0  0  0  0
   -3.0779    1.4737    4.5378 C   0  0  0  0  0  0
   -3.7666    1.8369    5.6959 C   0  0  0  0  0  0
   -4.9245    1.1518    6.0623 C   0  0  0  0  0  0
   -5.3877    0.0988    5.2752 C   0  0  0  0  0  0
   -4.7004   -0.2628    4.1163 C   0  0  0  0  0  0
   -3.1829    3.1320    6.6764 Cl  0  0  0  0  0  0
   -1.7067    3.6008    0.1995 H   0  0  0  0  0  0
   -3.1417    1.2814   -1.0603 H   0  0  0  0  0  0
   -1.5756    1.8913   -1.4793 H   0  0  0  0  0  0
   -1.9174   -0.3850    0.0152 H   0  0  0  0  0  0
   -3.7851    2.4952    1.9260 H   0  0  0  0  0  0
   -2.0897    2.9989    2.3147 H   0  0  0  0  0  0
    0.0182   -0.9735   -0.7028 H   0  0  0  0  0  0
    2.4896    0.3381    0.3447 H   0  0  0  0  0  0
    2.1058   -2.0246    1.0426 H   0  0  0  0  0  0
    2.0519   -2.5324   -0.6104 H   0  0  0  0  0  0
    4.2951   -2.9529    0.4014 H   0  0  0  0  0  0
    4.4801   -1.2434    0.7743 H   0  0  0  0  0  0
    4.4647   -1.7870   -0.9025 H   0  0  0  0  0  0
    2.1980    5.3267   -0.8628 H   0  0  0  0  0  0
    2.3861    6.9034   -2.7714 H   0  0  0  0  0  0
    2.6363    6.0892   -5.0723 H   0  0  0  0  0  0
    2.7068    3.6434   -5.5669 H   0  0  0  0  0  0
   -5.6573    4.1966    1.9986 H   0  0  0  0  0  0
   -5.8363    6.0338    3.6332 H   0  0  0  0  0  0
   -4.4704    8.0738    3.3514 H   0  0  0  0  0  0
   -2.9201    8.2893    1.4393 H   0  0  0  0  0  0
   -2.7265    6.4553   -0.2016 H   0  0  0  0  0  0
   -2.1685    2.0014    4.2894 H   0  0  0  0  0  0
   -5.4603    1.4293    6.9584 H   0  0  0  0  0  0
   -6.2799   -0.4379    5.5628 H   0  0  0  0  0  0
   -5.0796   -1.0818    3.5207 H   0  0  0  0  0  0
  1  2  1  0  0  0
  1  5  1  0  0  0
  1  6  1  0  0  0
  1 41  1  0  0  0
  2  3  1  0  0  0
  2 42  1  0  0  0
  2 43  1  0  0  0
  3  4  1  0  0  0
  3  7  1  0  0  0
  3 44  1  0  0  0
  4  5  1  0  0  0
  4 32  1  0  0  0
  5 45  1  0  0  0
  5 46  1  0  0  0
  6 24  1  0  0  0
  6 25  2  0  0  0
  6 26  2  0  0  0
  7  8  1  0  0  0
  7  9  2  0  0  0
  8 10  1  0  0  0
  8 47  1  0  0  0
 10 11  1  0  0  0
 10 12  1  0  0  0
 10 48  1  0  0  0
 11 14  1  0  0  0
 11 15  2  0  0  0
 12 13  1  0  0  0
 12 49  1  0  0  0
 12 50  1  0  0  0
 13 51  1  0  0  0
 13 52  1  0  0  0
 13 53  1  0  0  0
 14 16  2  0  0  0
 14 17  1  0  0  0
 16 19  1  0  0  0
 17 18  1  0  0  0
 18 19  2  0  0  0
 18 23  1  0  0  0
 19 20  1  0  0  0
 20 21  2  0  0  0
 20 54  1  0  0  0
 21 22  1  0  0  0
 21 55  1  0  0  0
 22 23  2  0  0  0
 22 56  1  0  0  0
 23 57  1  0  0  0
 24 27  2  0  0  0
 24 31  1  0  0  0
 27 28  1  0  0  0
 27 58  1  0  0  0
 28 29  2  0  0  0
 28 59  1  0  0  0
 29 30  1  0  0  0
 29 60  1  0  0  0
 30 31  2  0  0  0
 30 61  1  0  0  0
 31 62  1  0  0  0
 32 33  2  0  0  0
 32 34  1  0  0  0
 34 35  2  0  0  0
 34 39  1  0  0  0
 35 36  1  0  0  0
 35 63  1  0  0  0
 36 37  2  0  0  0
 36 40  1  0  0  0
 37 38  1  0  0  0
 37 64  1  0  0  0
 38 39  2  0  0  0
 38 65  1  0  0  0
 39 66  1  0  0  0
M  END
> <chembl_id>
CHEMBL2380725

> <chembl_pref_name>
None

> <i_m_ct_stereo_status>
1

> <s_m_source_file>
sdf/inactives_sanitized.sdf

> <i_m_source_file_index>
660

> <i_lp_mmshare_version>
49012

> <i_f3d_flags>
0

> <s_epik_input>
W2NIXTFbY0hdW2NIXVtjSF1bY0hdYzFTKD1PKSg9TylbQ0BASF0yW0NIMl1bQ0BIXShOKFtDSDJdMilDKD1PKWMzW2NIXWMoQ2wpW2NIXVtjSF1bY0hdMylDKD1PKVtOSF1bQ0BASF0oW0NIMl1bQ0gzXSlDKD1PKWMobzQpbmMoYzQ1KVtjSF1bY0hdW2NIXVtjSF01

> <s_epik_cmdline>
J2VwaWtfcHl0aG9uJywgJy1waHQnLCAnMC41JywgJy1waCcsICc3LjUnLCAnLW50JywgJy1tYScsICcyMDAnLCAnLWltYWUnLCAnPGluZmlsZS5tYWU+JywgJy1vbWFlJywgJzxvdXRmaWxlLm1hZT4n

> <r_lp_tautomer_probability>
1

> <r_epik_Ionization_Penalty>
  0.0000

> <r_epik_Ionization_Penalty_Charging>
  0.0000

> <r_epik_Ionization_Penalty_Neutral>
  0.0000

> <r_epik_State_Penalty>
 -0.0000

> <r_epik_Charging_Adjusted_Penalty>
0

> <i_epik_Tot_Q>
0

> <i_epik_Tot_abs_Q>
0

> <s_lp_Force_Field>
OPLS3e

> <r_lp_Energy>
54.004278

> <b_lp_Chiralities_Consistent>
1

> <s_lp_Variant>
sdf/inactives_sanitized.sdf:660-1

$$$$
sdf/inactives_sanitized.sdf:661
                    3D
 Schrodinger Suite 2020-1.
 76 80  0  0  1  0            999 V2000
   -1.8444   -2.9330   -2.5736 C   0  0  0  0  0  0
   -2.2529   -3.1187   -1.1026 C   0  0  0  0  0  0
   -2.1069   -1.8320   -0.2519 C   0  0  2  0  0  0
   -0.7187   -1.3396   -0.2010 N   0  0  0  0  0  0
   -0.3112   -0.1288    0.2252 C   0  0  0  0  0  0
   -1.0901    0.7971    0.4607 O   0  0  0  0  0  0
    1.2024    0.0169    0.4840 C   0  0  2  0  0  0
    1.5001   -0.2460    1.9625 C   0  0  0  0  0  0
    2.8503    0.4317    2.1516 C   0  0  2  0  0  0
    2.8434    1.5604    1.1066 C   0  0  0  0  0  0
    1.7156    1.3573    0.1910 N   0  0  0  0  0  0
    1.8283    1.8071   -1.1034 C   0  0  0  0  0  0
    1.9233    1.1543   -2.3224 C   0  0  0  0  0  0
    2.0087    2.1495   -3.3015 C   0  0  0  0  0  0
    2.1391    2.0017   -4.7988 C   0  0  0  0  0  0
    1.9585    3.3452   -2.7578 N   0  0  0  0  0  0
    1.8331    3.1449   -1.4359 N   0  0  0  0  0  0
    1.7261    4.3031   -0.5464 C   0  0  0  0  0  0
    0.5406    4.4039    0.4306 C   0  0  0  0  0  0
    0.6384    5.9297    0.2983 C   0  0  0  0  0  0
    1.2837    5.6840   -1.0720 C   0  0  0  0  0  0
    4.2918   -0.7820    1.8393 S   0  0  0  0  0  0
    4.1012   -1.4021    0.5224 O   0  0  0  0  0  0
    5.5536   -0.0870    2.1114 O   0  0  0  0  0  0
    4.0682   -2.0851    3.0842 C   0  0  0  0  0  0
    3.3559   -3.2188    2.6650 C   0  0  0  0  0  0
    3.1120   -4.2795    3.5300 C   0  0  0  0  0  0
    3.5839   -4.2274    4.8350 C   0  0  0  0  0  0
    3.2472   -5.6718    6.0277 Br  0  0  0  0  0  0
    4.2981   -3.1147    5.2699 C   0  0  0  0  0  0
    4.5479   -2.0247    4.4189 C   0  0  0  0  0  0
    5.3510   -0.8430    4.9881 C   0  0  0  0  0  0
    5.4490   -0.8914    6.3186 F   0  0  0  0  0  0
    6.5906   -0.8714    4.4993 F   0  0  0  0  0  0
    4.7867    0.3262    4.6957 F   0  0  0  0  0  0
   -2.6267   -2.0532    1.1751 C   0  0  0  0  0  0
   -3.7265   -1.6290    1.5381 O   0  0  0  0  0  0
   -1.7036   -2.8624    2.1933 C   0  0  0  0  0  0
   -0.7477   -3.5392    1.8087 O   0  0  0  0  0  0
   -2.0808   -2.6891    3.4730 N   0  0  0  0  0  0
   -1.4640   -3.3637    4.6100 C   0  0  0  0  0  0
   -1.1022   -2.5388    5.8233 C   0  0  0  0  0  0
   -0.0102   -3.0923    4.9409 C   0  0  0  0  0  0
   -1.9874   -3.8563   -3.1358 H   0  0  0  0  0  0
   -0.7951   -2.6519   -2.6661 H   0  0  0  0  0  0
   -2.4420   -2.1585   -3.0552 H   0  0  0  0  0  0
   -3.2885   -3.4635   -1.0781 H   0  0  0  0  0  0
   -1.6516   -3.9268   -0.6833 H   0  0  0  0  0  0
   -2.7074   -1.0581   -0.7364 H   0  0  0  0  0  0
   -0.0161   -2.0438   -0.3752 H   0  0  0  0  0  0
    1.7034   -0.7215   -0.1462 H   0  0  0  0  0  0
    0.7637    0.2096    2.6291 H   0  0  0  0  0  0
    1.5142   -1.3062    2.2086 H   0  0  0  0  0  0
    2.9897    0.8026    3.1649 H   0  0  0  0  0  0
    2.7211    2.5187    1.6116 H   0  0  0  0  0  0
    3.7982    1.5643    0.5781 H   0  0  0  0  0  0
    1.9380    0.0868   -2.4853 H   0  0  0  0  0  0
    2.1554    0.9553   -5.1044 H   0  0  0  0  0  0
    3.0579    2.4562   -5.1703 H   0  0  0  0  0  0
    1.3091    2.4741   -5.3250 H   0  0  0  0  0  0
    2.6917    4.3507   -0.0372 H   0  0  0  0  0  0
   -0.3881    3.9860    0.0346 H   0  0  0  0  0  0
    0.7088    3.9826    1.4222 H   0  0  0  0  0  0
   -0.3113    6.4655    0.2846 H   0  0  0  0  0  0
    1.3083    6.3934    1.0254 H   0  0  0  0  0  0
    0.5616    5.6348   -1.8903 H   0  0  0  0  0  0
    2.0911    6.3556   -1.3655 H   0  0  0  0  0  0
    2.9707   -3.2873    1.6583 H   0  0  0  0  0  0
    2.5541   -5.1382    3.1865 H   0  0  0  0  0  0
    4.6561   -3.1117    6.2891 H   0  0  0  0  0  0
   -2.9153   -2.1518    3.6612 H   0  0  0  0  0  0
   -1.8340   -4.3781    4.7658 H   0  0  0  0  0  0
   -1.3031   -1.4671    5.8079 H   0  0  0  0  0  0
   -1.2607   -2.9760    6.8091 H   0  0  0  0  0  0
    0.5584   -2.4095    4.3088 H   0  0  0  0  0  0
    0.5960   -3.9216    5.3047 H   0  0  0  0  0  0
  1  2  1  0  0  0
  1 44  1  0  0  0
  1 45  1  0  0  0
  1 46  1  0  0  0
  2  3  1  0  0  0
  2 47  1  0  0  0
  2 48  1  0  0  0
  3  4  1  0  0  0
  3 36  1  0  0  0
  3 49  1  0  0  0
  4  5  1  0  0  0
  4 50  1  0  0  0
  5  6  2  0  0  0
  5  7  1  0  0  0
  7  8  1  0  0  0
  7 11  1  0  0  0
  7 51  1  0  0  0
  8  9  1  0  0  0
  8 52  1  0  0  0
  8 53  1  0  0  0
  9 10  1  0  0  0
  9 22  1  0  0  0
  9 54  1  0  0  0
 10 11  1  0  0  0
 10 55  1  0  0  0
 10 56  1  0  0  0
 11 12  1  0  0  0
 12 13  2  0  0  0
 12 17  1  0  0  0
 13 14  1  0  0  0
 13 57  1  0  0  0
 14 15  1  0  0  0
 14 16  2  0  0  0
 15 58  1  0  0  0
 15 59  1  0  0  0
 15 60  1  0  0  0
 16 17  1  0  0  0
 17 18  1  0  0  0
 18 19  1  0  0  0
 18 21  1  0  0  0
 18 61  1  0  0  0
 19 20  1  0  0  0
 19 62  1  0  0  0
 19 63  1  0  0  0
 20 21  1  0  0  0
 20 64  1  0  0  0
 20 65  1  0  0  0
 21 66  1  0  0  0
 21 67  1  0  0  0
 22 23  2  0  0  0
 22 24  2  0  0  0
 22 25  1  0  0  0
 25 26  2  0  0  0
 25 31  1  0  0  0
 26 27  1  0  0  0
 26 68  1  0  0  0
 27 28  2  0  0  0
 27 69  1  0  0  0
 28 29  1  0  0  0
 28 30  1  0  0  0
 30 31  2  0  0  0
 30 70  1  0  0  0
 31 32  1  0  0  0
 32 33  1  0  0  0
 32 34  1  0  0  0
 32 35  1  0  0  0
 36 37  2  0  0  0
 36 38  1  0  0  0
 38 39  2  0  0  0
 38 40  1  0  0  0
 40 41  1  0  0  0
 40 71  1  0  0  0
 41 42  1  0  0  0
 41 43  1  0  0  0
 41 72  1  0  0  0
 42 43  1  0  0  0
 42 73  1  0  0  0
 42 74  1  0  0  0
 43 75  1  0  0  0
 43 76  1  0  0  0
M  END
> <chembl_id>
CHEMBL3649367

> <chembl_pref_name>
None

> <i_m_ct_stereo_status>
1

> <s_m_source_file>
sdf/inactives_sanitized.sdf

> <i_m_source_file_index>
661

> <i_lp_mmshare_version>
49012

> <i_f3d_flags>
0

> <s_epik_input>
W0NIMl0xW0NIMl1bQ0hdMVtOSF1DKD1PKUMoPU8pW0NASF0oW0NIMl1bQ0gzXSlbTkhdQyg9TylbQ0BASF0yW0NIMl1bQ0BASF0oUyg9TykoPU8pYzNbY0hdW2NIXWMoQnIpW2NIXWMzQyhGKShGKUYpW0NIMl1OMmM0W2NIXWMoW0NIM10pbm40W0NIXTVbQ0gyXVtDSDJdW0NIMl01

> <s_epik_cmdline>
J2VwaWtfcHl0aG9uJywgJy1waHQnLCAnMC41JywgJy1waCcsICc3LjUnLCAnLW50JywgJy1tYScsICcyMDAnLCAnLWltYWUnLCAnPGluZmlsZS5tYWU+JywgJy1vbWFlJywgJzxvdXRmaWxlLm1hZT4n

> <r_lp_tautomer_probability>
1

> <r_epik_Ionization_Penalty>
  0.0016

> <r_epik_Ionization_Penalty_Charging>
  0.0000

> <r_epik_Ionization_Penalty_Neutral>
  0.0016

> <r_epik_State_Penalty>
 -0.0000

> <r_epik_Charging_Adjusted_Penalty>
0

> <i_epik_Tot_Q>
0

> <i_epik_Tot_abs_Q>
0

> <s_lp_Force_Field>
OPLS3e

> <r_lp_Energy>
43.749813

> <b_lp_Chiralities_Consistent>
1

> <s_lp_Variant>
sdf/inactives_sanitized.sdf:661-1

$$$$
sdf/inactives_sanitized.sdf:662
                    3D
 Schrodinger Suite 2020-1.
 52 53  0  0  1  0            999 V2000
    2.2768   -2.1573   -1.6055 C   0  0  0  0  0  0
    2.1714   -1.2210   -0.3666 C   0  0  0  0  0  0
    3.6008   -0.6611   -0.1099 C   0  0  0  0  0  0
   -0.8207    1.1671    0.2124 C   0  0  0  0  0  0
   -0.2187   -0.0247   -0.2442 C   0  0  0  0  0  0
   -0.9793   -1.2009   -0.2935 C   0  0  0  0  0  0
   -2.3019   -1.2402    0.1621 C   0  0  0  0  0  0
   -2.8924   -0.0555    0.6060 C   0  0  0  0  0  0
   -2.1631    1.1302    0.6299 C   0  0  0  0  0  0
    1.1999   -0.0455   -0.7520 C   0  0  0  0  0  0
    1.6443    0.8844   -1.4298 O   0  0  0  0  0  0
    1.7024   -1.9467    0.9291 C   0  0  0  0  0  0
    1.4079   -3.3221    0.9488 C   0  0  0  0  0  0
    0.9592   -3.9448    2.1136 C   0  0  0  0  0  0
    0.8124   -3.2082    3.2870 C   0  0  0  0  0  0
    1.1167   -1.8486    3.2953 C   0  0  0  0  0  0
    1.5632   -1.2272    2.1292 C   0  0  0  0  0  0
    0.9316   -0.9309    4.7449 Cl  0  0  0  0  0  0
    0.5756   -5.6273    2.0959 Cl  0  0  0  0  0  0
   -0.0573    2.3236    0.2498 O   0  0  0  0  0  0
   -0.6373    3.5434    0.7001 C   0  0  0  0  0  0
   -3.0822   -2.5302    0.1690 C   0  0  0  0  0  0
   -4.2956   -2.5379   -0.0447 O   0  0  0  0  0  0
   -2.3631   -3.6353    0.4425 N   0  0  0  0  0  0
   -2.8798   -5.0072    0.4528 C   0  0  0  0  0  0
   -2.6572   -5.7416   -0.8870 C   0  0  0  0  0  0
   -2.0174   -5.1135   -1.8925 N   0  0  0  0  0  0
   -3.0606   -6.8984   -0.9973 O   0  0  0  0  0  0
   -1.6774   -5.7327   -3.1691 C   0  0  0  0  0  0
   -0.6691   -6.7988   -3.0351 C   0  0  0  0  0  0
    0.1238   -7.6350   -2.9299 N   0  0  0  0  0  0
    1.3236   -2.6182   -1.8665 H   0  0  0  0  0  0
    2.9917   -2.9641   -1.4371 H   0  0  0  0  0  0
    2.6207   -1.6223   -2.4929 H   0  0  0  0  0  0
    3.6136    0.1034    0.6685 H   0  0  0  0  0  0
    4.0356   -0.2102   -1.0038 H   0  0  0  0  0  0
    4.2838   -1.4510    0.2062 H   0  0  0  0  0  0
   -0.5359   -2.1055   -0.6830 H   0  0  0  0  0  0
   -3.9171   -0.0453    0.9504 H   0  0  0  0  0  0
   -2.6625    2.0164    0.9900 H   0  0  0  0  0  0
    1.5025   -3.9275    0.0607 H   0  0  0  0  0  0
    0.4631   -3.6899    4.1888 H   0  0  0  0  0  0
    1.7842   -0.1698    2.1535 H   0  0  0  0  0  0
    0.1087    4.3363    0.6487 H   0  0  0  0  0  0
   -0.9687    3.4700    1.7370 H   0  0  0  0  0  0
   -1.4787    3.8420    0.0732 H   0  0  0  0  0  0
   -1.3810   -3.5297    0.6505 H   0  0  0  0  0  0
   -2.3596   -5.5543    1.2391 H   0  0  0  0  0  0
   -3.9411   -5.0239    0.7064 H   0  0  0  0  0  0
   -1.6856   -4.1715   -1.7443 H   0  0  0  0  0  0
   -2.5653   -6.1403   -3.6549 H   0  0  0  0  0  0
   -1.2707   -4.9697   -3.8327 H   0  0  0  0  0  0
  1  2  1  0  0  0
  1 32  1  0  0  0
  1 33  1  0  0  0
  1 34  1  0  0  0
  2  3  1  0  0  0
  2 10  1  0  0  0
  2 12  1  0  0  0
  3 35  1  0  0  0
  3 36  1  0  0  0
  3 37  1  0  0  0
  4  5  2  0  0  0
  4  9  1  0  0  0
  4 20  1  0  0  0
  5  6  1  0  0  0
  5 10  1  0  0  0
  6  7  2  0  0  0
  6 38  1  0  0  0
  7  8  1  0  0  0
  7 22  1  0  0  0
  8  9  2  0  0  0
  8 39  1  0  0  0
  9 40  1  0  0  0
 10 11  2  0  0  0
 12 13  2  0  0  0
 12 17  1  0  0  0
 13 14  1  0  0  0
 13 41  1  0  0  0
 14 15  2  0  0  0
 14 19  1  0  0  0
 15 16  1  0  0  0
 15 42  1  0  0  0
 16 17  2  0  0  0
 16 18  1  0  0  0
 17 43  1  0  0  0
 20 21  1  0  0  0
 21 44  1  0  0  0
 21 45  1  0  0  0
 21 46  1  0  0  0
 22 23  2  0  0  0
 22 24  1  0  0  0
 24 25  1  0  0  0
 24 47  1  0  0  0
 25 26  1  0  0  0
 25 48  1  0  0  0
 25 49  1  0  0  0
 26 27  1  0  0  0
 26 28  2  0  0  0
 27 29  1  0  0  0
 27 50  1  0  0  0
 29 30  1  0  0  0
 29 51  1  0  0  0
 29 52  1  0  0  0
 30 31  3  0  0  0
M  END
> <chembl_id>
CHEMBL3354492

> <chembl_pref_name>
None

> <s_m_source_file>
sdf/inactives_sanitized.sdf

> <i_m_source_file_index>
662

> <i_lp_mmshare_version>
49012

> <i_m_ct_stereo_status>
1

> <i_f3d_flags>
0

> <s_epik_input>
W2NIXTFjKENsKVtjSF1jKENsKVtjSF1jMUMoW0NIM10pKFtDSDNdKUMoPU8pYyhjMk9bQ0gzXSlbY0hdYyhbY0hdW2NIXTIpQyg9TylbTkhdW0NIMl1DKD1PKVtOSF1bQ0gyXUMjTg==

> <s_epik_cmdline>
J2VwaWtfcHl0aG9uJywgJy1waHQnLCAnMC41JywgJy1waCcsICc3LjUnLCAnLW50JywgJy1tYScsICcyMDAnLCAnLWltYWUnLCAnPGluZmlsZS5tYWU+JywgJy1vbWFlJywgJzxvdXRmaWxlLm1hZT4n

> <r_lp_tautomer_probability>
1

> <r_epik_Ionization_Penalty>
  0.0000

> <r_epik_Ionization_Penalty_Charging>
  0.0000

> <r_epik_Ionization_Penalty_Neutral>
  0.0000

> <r_epik_State_Penalty>
 -0.0000

> <r_epik_Charging_Adjusted_Penalty>
0

> <i_epik_Tot_Q>
0

> <i_epik_Tot_abs_Q>
0

> <s_lp_Force_Field>
OPLS3e

> <r_lp_Energy>
43.065045

> <b_lp_Chiralities_Consistent>
1

> <s_lp_Variant>
sdf/inactives_sanitized.sdf:662-1

$$$$
sdf/inactives_sanitized.sdf:663
                    3D
 Schrodinger Suite 2020-1.
 55 59  0  0  1  0            999 V2000
    0.3143    1.0756    0.7658 C   0  0  0  0  0  0
   -0.4275   -0.0971    0.9453 C   0  0  0  0  0  0
   -1.8190   -0.1154    0.8438 C   0  0  0  0  0  0
   -0.3400    2.2880    0.4820 C   0  0  0  0  0  0
   -1.7374    2.2769    0.3784 C   0  0  0  0  0  0
   -2.4816    1.0849    0.5551 C   0  0  0  0  0  0
   -3.8273    1.2204    0.4236 N   0  0  0  0  0  0
   -4.1707    2.4522    0.1561 C   0  0  0  0  0  0
   -2.8492    3.5935    0.0381 S   0  0  0  0  0  0
   -5.8250    3.0179   -0.0827 S   0  0  0  0  0  0
   -6.7303    1.4475    0.0924 C   0  0  0  0  0  0
   -8.2286    1.7433   -0.0418 C   0  0  0  0  0  0
   -8.7549    1.5604   -1.1405 O   0  0  0  0  0  0
    1.7101    0.9329    0.8952 N   0  0  0  0  0  0
    2.6960    1.8383    0.7025 C   0  0  0  0  0  0
    4.1307    1.3051    0.9246 C   0  0  2  0  0  0
    2.5445    3.0139    0.3629 O   0  0  0  0  0  0
    4.5785    1.8923    2.2022 N   0  0  0  0  0  0
    4.9978    1.4899   -0.3057 C   0  0  0  0  0  0
    4.7083    0.7609   -1.4672 C   0  0  0  0  0  0
    5.4909    0.9104   -2.6088 C   0  0  0  0  0  0
    6.5701    1.7897   -2.5942 C   0  0  0  0  0  0
    6.8736    2.5187   -1.4475 C   0  0  0  0  0  0
    6.0910    2.3681   -0.3057 C   0  0  0  0  0  0
   -8.9894    2.1953    1.1718 C   0  0  0  0  0  0
   -8.3467    2.4732    2.3867 C   0  0  0  0  0  0
  -11.1264    2.7740    2.1854 C   0  0  0  0  0  0
  -10.3777    2.3545    1.0897 C   0  0  0  0  0  0
  -10.4948    3.0547    3.4189 C   0  0  0  0  0  0
   -9.0795    2.9026    3.5210 C   0  0  0  0  0  0
   -8.4438    3.1862    4.7561 C   0  0  0  0  0  0
   -9.1925    3.6046    5.8530 C   0  0  0  0  0  0
  -10.5721    3.7515    5.7532 C   0  0  0  0  0  0
  -11.2275    3.4829    4.5543 C   0  0  0  0  0  0
    0.0801   -1.0258    1.1664 H   0  0  0  0  0  0
   -2.3666   -1.0358    0.9845 H   0  0  0  0  0  0
    0.1882    3.2175    0.3453 H   0  0  0  0  0  0
   -6.4109    0.7558   -0.6878 H   0  0  0  0  0  0
   -6.5031    0.9601    1.0401 H   0  0  0  0  0  0
    2.0084    0.0048    1.1568 H   0  0  0  0  0  0
    4.0878    0.2281    1.1034 H   0  0  0  0  0  0
    4.0006    1.5757    2.9675 H   0  0  0  0  0  0
    5.5211    1.6008    2.4182 H   0  0  0  0  0  0
    3.8724    0.0765   -1.4861 H   0  0  0  0  0  0
    5.2619    0.3474   -3.5015 H   0  0  0  0  0  0
    7.1769    1.9075   -3.4799 H   0  0  0  0  0  0
    7.7117    3.1999   -1.4440 H   0  0  0  0  0  0
    6.3377    2.9455    0.5729 H   0  0  0  0  0  0
   -7.2764    2.3743    2.4930 H   0  0  0  0  0  0
  -12.1973    2.8872    2.0966 H   0  0  0  0  0  0
  -10.9016    2.1509    0.1660 H   0  0  0  0  0  0
   -7.3723    3.0749    4.8431 H   0  0  0  0  0  0
   -8.6981    3.8166    6.7897 H   0  0  0  0  0  0
  -11.1392    4.0771    6.6129 H   0  0  0  0  0  0
  -12.2994    3.6004    4.4848 H   0  0  0  0  0  0
  1  2  2  0  0  0
  1  4  1  0  0  0
  1 14  1  0  0  0
  2  3  1  0  0  0
  2 35  1  0  0  0
  3  6  2  0  0  0
  3 36  1  0  0  0
  4  5  2  0  0  0
  4 37  1  0  0  0
  5  6  1  0  0  0
  5  9  1  0  0  0
  6  7  1  0  0  0
  7  8  2  0  0  0
  8  9  1  0  0  0
  8 10  1  0  0  0
 10 11  1  0  0  0
 11 12  1  0  0  0
 11 38  1  0  0  0
 11 39  1  0  0  0
 12 13  2  0  0  0
 12 25  1  0  0  0
 14 15  1  0  0  0
 14 40  1  0  0  0
 15 16  1  0  0  0
 15 17  2  0  0  0
 16 18  1  0  0  0
 16 19  1  0  0  0
 16 41  1  0  0  0
 18 42  1  0  0  0
 18 43  1  0  0  0
 19 20  2  0  0  0
 19 24  1  0  0  0
 20 21  1  0  0  0
 20 44  1  0  0  0
 21 22  2  0  0  0
 21 45  1  0  0  0
 22 23  1  0  0  0
 22 46  1  0  0  0
 23 24  2  0  0  0
 23 47  1  0  0  0
 24 48  1  0  0  0
 25 26  2  0  0  0
 25 28  1  0  0  0
 26 30  1  0  0  0
 26 49  1  0  0  0
 27 29  1  0  0  0
 27 28  2  0  0  0
 27 50  1  0  0  0
 28 51  1  0  0  0
 29 30  2  0  0  0
 29 34  1  0  0  0
 30 31  1  0  0  0
 31 32  2  0  0  0
 31 52  1  0  0  0
 32 33  1  0  0  0
 32 53  1  0  0  0
 33 34  2  0  0  0
 33 54  1  0  0  0
 34 55  1  0  0  0
M  END
> <chembl_id>
CHEMBL3218765

> <chembl_pref_name>
None

> <i_m_ct_stereo_status>
1

> <s_m_source_file>
sdf/inactives_sanitized.sdf

> <i_m_source_file_index>
663

> <i_lp_mmshare_version>
49012

> <i_f3d_flags>
0

> <s_epik_input>
W2NIXTFbY0hdW2NIXVtjSF1bY0hdYzFbQ0BASF0oW05IMl0pQyg9TylbTkhdYyhbY0hdMilbY0hdW2NIXWMoYzIzKW5jKHMzKVNbQ0gyXUMoPU8pYyhbY0hdW2NIXTQpW2NIXWMoYzQ1KVtjSF1bY0hdW2NIXVtjSF01

> <s_epik_cmdline>
J2VwaWtfcHl0aG9uJywgJy1waHQnLCAnMC41JywgJy1waCcsICc3LjUnLCAnLW50JywgJy1tYScsICcyMDAnLCAnLWltYWUnLCAnPGluZmlsZS5tYWU+JywgJy1vbWFlJywgJzxvdXRmaWxlLm1hZT4n

> <r_lp_tautomer_probability>
0.99990000499975

> <r_epik_Ionization_Penalty>
  0.1471

> <r_epik_Ionization_Penalty_Charging>
  0.0000

> <r_epik_Ionization_Penalty_Neutral>
  0.1471

> <r_epik_State_Penalty>
  0.1364

> <r_epik_Charging_Adjusted_Penalty>
0.136429146392537

> <i_epik_Tot_Q>
0

> <i_epik_Tot_abs_Q>
0

> <s_lp_Force_Field>
OPLS3e

> <r_lp_Energy>
58.324119

> <b_lp_Chiralities_Consistent>
1

> <s_lp_Variant>
sdf/inactives_sanitized.sdf:663-1

$$$$
