sdf/actives_sanitized.sdf:1
                    3D
 Schrodinger Suite 2020-1.
 61 65  0  0  1  0            999 V2000
    4.3558   -1.0830    7.0828 N   0  0  0  0  0  0
   -2.3822   -0.1535   -1.1216 N   0  0  0  0  0  0
    6.0534    4.1828   10.6194 C   0  0  0  0  0  0
    7.0360    3.4643    9.9415 C   0  0  0  0  0  0
    6.7440    2.1970    9.4440 C   0  0  0  0  0  0
    3.6392    0.0045    5.0664 C   0  0  0  0  0  0
    3.9054   -1.2529    5.7846 C   0  0  0  0  0  0
    3.9392    1.1679    5.7025 C   0  0  0  0  0  0
    3.6157    0.9450    2.7331 C   0  0  0  0  0  0
    2.1377   -0.8840    3.2313 C   0  0  0  0  0  0
   -0.5057    1.1572   -0.2737 C   0  0  0  0  0  0
   -2.3401    3.2510    0.2642 C   0  0  0  0  0  0
   -2.7910    2.0448   -0.2933 C   0  0  0  0  0  0
   -1.8912    0.9918   -0.5711 C   0  0  0  0  0  0
   -0.1523   -1.0869   -1.1383 C   0  0  0  0  0  0
    0.7655    4.8771    1.4065 C   0  0  0  0  0  0
    5.1515    0.2559    9.0877 C   0  0  0  0  0  0
   -4.5721    4.2055    0.2880 C   0  0  0  0  0  0
   -3.1779    4.3139    0.5558 O   0  0  0  0  0  0
   -0.9799    3.4225    0.5492 C   0  0  0  0  0  0
   -0.6032    4.6386    1.0936 O   0  0  0  0  0  0
   -0.0730    2.3866    0.2796 C   0  0  0  0  0  0
   -1.5166   -1.1578   -1.3966 C   0  0  0  0  0  0
    0.3733    0.0679   -0.5600 C   0  0  0  0  0  0
    1.7248    0.1164   -0.3028 O   0  0  0  0  0  0
    2.1645    0.0704    1.0031 C   0  0  0  0  0  0
    3.1451    0.9730    1.4202 C   0  0  0  0  0  0
    3.6447    1.8830    0.5521 F   0  0  0  0  0  0
    1.6644   -0.8611    1.9202 C   0  0  0  0  0  0
    3.1324    0.0090    3.6605 C   0  0  0  0  0  0
    3.7590   -2.3574    5.2512 O   0  0  0  0  0  0
    4.5888   -2.3428    7.8191 C   0  0  0  0  0  0
    4.4152    1.2527    6.9758 N   0  0  0  0  0  0
    4.6143    0.1659    7.6459 C   0  0  0  0  0  0
    5.4678    1.6539    9.6216 C   0  0  0  0  0  0
    4.4885    2.3783   10.3085 C   0  0  0  0  0  0
    4.7815    3.6454   10.8058 C   0  0  0  0  0  0
    6.2805    5.1657   11.0054 H   0  0  0  0  0  0
    8.0199    3.8879    9.8030 H   0  0  0  0  0  0
    7.5070    1.6412    8.9186 H   0  0  0  0  0  0
    3.7795    2.1154    5.2081 H   0  0  0  0  0  0
    4.3793    1.6528    3.0209 H   0  0  0  0  0  0
    1.7132   -1.6035    3.9158 H   0  0  0  0  0  0
   -3.8347    1.8916   -0.5255 H   0  0  0  0  0  0
    0.4911   -1.9215   -1.3753 H   0  0  0  0  0  0
    0.8696    5.8801    1.8201 H   0  0  0  0  0  0
    1.3955    4.8207    0.5174 H   0  0  0  0  0  0
    1.1344    4.1724    2.1533 H   0  0  0  0  0  0
    4.4357   -0.2094    9.7670 H   0  0  0  0  0  0
    6.0581   -0.3456    9.1723 H   0  0  0  0  0  0
   -5.0669    5.1327    0.5763 H   0  0  0  0  0  0
   -5.0280    3.3968    0.8609 H   0  0  0  0  0  0
   -4.7646    4.0463   -0.7740 H   0  0  0  0  0  0
    0.9780    2.5084    0.4859 H   0  0  0  0  0  0
   -1.9427   -2.0467   -1.8379 H   0  0  0  0  0  0
    0.9053   -1.5683    1.6200 H   0  0  0  0  0  0
    4.8062   -2.2063    8.8771 H   0  0  0  0  0  0
    5.4296   -2.8850    7.3836 H   0  0  0  0  0  0
    3.7115   -2.9907    7.7691 H   0  0  0  0  0  0
    3.5016    1.9631   10.4531 H   0  0  0  0  0  0
    4.0263    4.2087   11.3340 H   0  0  0  0  0  0
  1  7  1  0  0  0
  1 32  1  0  0  0
  1 34  1  0  0  0
  2 14  2  0  0  0
  2 23  1  0  0  0
  3  4  2  0  0  0
  3 37  1  0  0  0
  3 38  1  0  0  0
  4  5  1  0  0  0
  4 39  1  0  0  0
  5 35  2  0  0  0
  5 40  1  0  0  0
  6  7  1  0  0  0
  6  8  2  0  0  0
  6 30  1  0  0  0
  7 31  2  0  0  0
  8 33  1  0  0  0
  8 41  1  0  0  0
  9 27  2  0  0  0
  9 30  1  0  0  0
  9 42  1  0  0  0
 10 29  1  0  0  0
 10 30  2  0  0  0
 10 43  1  0  0  0
 11 14  1  0  0  0
 11 22  1  0  0  0
 11 24  2  0  0  0
 12 13  2  0  0  0
 12 19  1  0  0  0
 12 20  1  0  0  0
 13 14  1  0  0  0
 13 44  1  0  0  0
 15 23  2  0  0  0
 15 24  1  0  0  0
 15 45  1  0  0  0
 16 21  1  0  0  0
 16 46  1  0  0  0
 16 47  1  0  0  0
 16 48  1  0  0  0
 17 34  1  0  0  0
 17 35  1  0  0  0
 17 49  1  0  0  0
 17 50  1  0  0  0
 18 19  1  0  0  0
 18 51  1  0  0  0
 18 52  1  0  0  0
 18 53  1  0  0  0
 20 21  1  0  0  0
 20 22  2  0  0  0
 22 54  1  0  0  0
 23 55  1  0  0  0
 24 25  1  0  0  0
 25 26  1  0  0  0
 26 27  1  0  0  0
 26 29  2  0  0  0
 27 28  1  0  0  0
 29 56  1  0  0  0
 32 57  1  0  0  0
 32 58  1  0  0  0
 32 59  1  0  0  0
 33 34  2  0  0  0
 35 36  1  0  0  0
 36 37  2  0  0  0
 36 60  1  0  0  0
 37 61  1  0  0  0
M  END
> <chembl_id>
CHEMBL461648

> <chembl_pref_name>
None

> <s_m_source_file>
sdf/actives_sanitized.sdf

> <i_m_source_file_index>
1

> <i_lp_mmshare_version>
49012

> <i_m_ct_stereo_status>
1

> <i_f3d_flags>
0

> <s_epik_input>
W2NIXTFbY0hdW2NIXVtjSF1bY0hdYzFbQ0gyXWMybltjSF1jKGMoPU8pbjJbQ0gzXSktYyhbY0hdW2NIXTMpW2NIXWMoRiljM09jNFtjSF1bY0hdbmMoYzQ1KVtjSF1jKE9bQ0gzXSljKFtjSF01KU9bQ0gzXQ==

> <s_epik_cmdline>
J2VwaWtfcHl0aG9uJywgJy1waHQnLCAnMC41JywgJy1waCcsICc3LjUnLCAnLW50JywgJy1tYScsICcyMDAnLCAnLWltYWUnLCAnPGluZmlsZS5tYWU+JywgJy1vbWFlJywgJzxvdXRmaWxlLm1hZT4n

> <r_lp_tautomer_probability>
1

> <r_epik_Ionization_Penalty>
  0.0525

> <r_epik_Ionization_Penalty_Charging>
  0.0000

> <r_epik_Ionization_Penalty_Neutral>
  0.0525

> <r_epik_State_Penalty>
  0.0450

> <r_epik_Charging_Adjusted_Penalty>
0.0450199852857318

> <i_epik_Tot_Q>
0

> <i_epik_Tot_abs_Q>
0

> <s_lp_Force_Field>
OPLS3e

> <r_lp_Energy>
77.101141

> <b_lp_Chiralities_Consistent>
1

> <s_lp_Variant>
sdf/actives_sanitized.sdf:1-1

$$$$
sdf/actives_sanitized.sdf:2
                    3D
 Schrodinger Suite 2020-1.
 50 52  0  0  1  0            999 V2000
    0.4661   -2.2810   -1.8431 O   0  0  0  0  0  0
    2.0913    0.8337    0.7006 N   0  0  0  0  0  0
    3.4924   -1.3606   -0.2839 N   0  0  0  0  0  0
    0.2290    0.3617   -0.6989 N   0  0  0  0  0  0
    3.9461    1.3696    2.1248 N   0  0  0  0  0  0
    2.5424   -2.6191   -2.6090 N   0  0  0  0  0  0
    3.4791    3.7324    0.3344 N   0  3  0  0  0  0
    1.5242    0.0368   -0.2447 C   0  0  0  0  0  0
    2.2361   -1.0821   -0.7437 C   0  0  0  0  0  0
    3.3406    0.5548    1.1528 C   0  0  0  0  0  0
    4.0343   -0.5453    0.6544 C   0  0  0  0  0  0
    1.6705   -2.0426   -1.7726 C   0  0  0  0  0  0
   -0.6762    1.3961   -0.3950 C   0  0  0  0  0  0
    3.3425    2.6204    2.6000 C   0  0  2  0  0  0
    3.8903    3.8410    1.8099 C   0  0  2  0  0  0
   -0.2983    2.6257    0.1668 C   0  0  0  0  0  0
   -2.0236    1.1818   -0.7007 C   0  0  0  0  0  0
    3.6148    2.7656    4.1126 C   0  0  0  0  0  0
   -1.2518    3.6096    0.4413 C   0  0  0  0  0  0
    3.3332    5.1726    2.3586 C   0  0  0  0  0  0
   -2.9794    2.1611   -0.4312 C   0  0  0  0  0  0
    3.0473    4.0904    4.6625 C   0  0  0  0  0  0
   -2.5955    3.3722    0.1422 C   0  0  0  0  0  0
    3.5646    5.3141    3.8769 C   0  0  0  0  0  0
   -0.8189    4.9267    1.0600 C   0  0  0  0  0  0
   -0.1656   -0.3501   -1.2979 H   0  0  0  0  0  0
    4.9201    1.2076    2.3375 H   0  0  0  0  0  0
    2.2162   -3.2639   -3.3142 H   0  0  0  0  0  0
    3.5303   -2.4270   -2.5300 H   0  0  0  0  0  0
    2.4723    3.7171    0.2559 H   0  0  0  0  0  0
    3.8456    2.8791   -0.0627 H   0  0  0  0  0  0
    5.0280   -0.7941    0.9975 H   0  0  0  0  0  0
    2.2615    2.5785    2.4567 H   0  0  0  0  0  0
    4.9815    3.8416    1.8496 H   0  0  0  0  0  0
    0.7323    2.8477    0.3876 H   0  0  0  0  0  0
   -2.3408    0.2484   -1.1443 H   0  0  0  0  0  0
    3.1693    1.9302    4.6555 H   0  0  0  0  0  0
    4.6876    2.7211    4.3105 H   0  0  0  0  0  0
    3.7251    6.0238    1.7998 H   0  0  0  0  0  0
    2.2557    5.2024    2.1839 H   0  0  0  0  0  0
   -4.0181    1.9802   -0.6659 H   0  0  0  0  0  0
    1.9573    4.0647    4.6157 H   0  0  0  0  0  0
    3.3014    4.1930    5.7183 H   0  0  0  0  0  0
   -3.3439    4.1237    0.3485 H   0  0  0  0  0  0
    4.6311    5.4414    4.0684 H   0  0  0  0  0  0
    3.0818    6.2210    4.2436 H   0  0  0  0  0  0
   -1.6602    5.6005    1.2276 H   0  0  0  0  0  0
   -0.0991    5.4283    0.4122 H   0  0  0  0  0  0
   -0.3263    4.7476    2.0166 H   0  0  0  0  0  0
    3.8375    4.5182   -0.1892 H   0  0  0  0  0  0
  1 12  2  0  0  0
  2  8  2  0  0  0
  2 10  1  0  0  0
  3  9  2  0  0  0
  3 11  1  0  0  0
  4  8  1  0  0  0
  4 13  1  0  0  0
  4 26  1  0  0  0
  5 10  1  0  0  0
  5 14  1  0  0  0
  5 27  1  0  0  0
  6 12  1  0  0  0
  6 28  1  0  0  0
  6 29  1  0  0  0
  7 15  1  0  0  0
  7 30  1  0  0  0
  7 31  1  0  0  0
  7 50  1  0  0  0
  8  9  1  0  0  0
  9 12  1  0  0  0
 10 11  2  0  0  0
 11 32  1  0  0  0
 13 16  2  0  0  0
 13 17  1  0  0  0
 14 15  1  0  0  0
 14 18  1  0  0  0
 14 33  1  0  0  0
 15 20  1  0  0  0
 15 34  1  0  0  0
 16 19  1  0  0  0
 16 35  1  0  0  0
 17 21  2  0  0  0
 17 36  1  0  0  0
 18 22  1  0  0  0
 18 37  1  0  0  0
 18 38  1  0  0  0
 19 23  2  0  0  0
 19 25  1  0  0  0
 20 24  1  0  0  0
 20 39  1  0  0  0
 20 40  1  0  0  0
 21 23  1  0  0  0
 21 41  1  0  0  0
 22 24  1  0  0  0
 22 42  1  0  0  0
 22 43  1  0  0  0
 23 44  1  0  0  0
 24 45  1  0  0  0
 24 46  1  0  0  0
 25 47  1  0  0  0
 25 48  1  0  0  0
 25 49  1  0  0  0
M  CHG  1   7   1
M  END
> <chembl_id>
CHEMBL1974328

> <chembl_pref_name>
None

> <s_m_source_file>
sdf/actives_sanitized.sdf

> <i_m_source_file_index>
2

> <i_lp_mmshare_version>
49012

> <i_m_ct_stereo_status>
1

> <i_f3d_flags>
0

> <s_epik_input>
W0NIMl0xW0NIMl1bQ0gyXVtDSDJdW0NASF0oW05IMl0pW0NASF0xW05IXWMoW2NIXW5jMkMoPU8pW05IMl0pbmMyW05IXWMzW2NIXWMoW0NIM10pW2NIXVtjSF1bY0hdMw==

> <s_epik_cmdline>
J2VwaWtfcHl0aG9uJywgJy1waHQnLCAnMC41JywgJy1waCcsICc3LjUnLCAnLW50JywgJy1tYScsICcyMDAnLCAnLWltYWUnLCAnPGluZmlsZS5tYWU+JywgJy1vbWFlJywgJzxvdXRmaWxlLm1hZT4n

> <r_lp_tautomer_probability>
1

> <r_epik_Ionization_Penalty>
  0.0007

> <r_epik_Ionization_Penalty_Charging>
  0.0007

> <r_epik_Ionization_Penalty_Neutral>
  0.0000

> <r_epik_State_Penalty>
 -0.0000

> <r_epik_Charging_Adjusted_Penalty>
0.000698672536672444

> <i_epik_Tot_Q>
1

> <i_epik_Tot_abs_Q>
1

> <s_lp_Force_Field>
OPLS3e

> <r_lp_Energy>
36.322752

> <b_lp_Chiralities_Consistent>
1

> <s_lp_Variant>
sdf/actives_sanitized.sdf:2-1

$$$$
sdf/actives_sanitized.sdf:3
                    3D
 Schrodinger Suite 2020-1.
 43 45  0  0  1  0            999 V2000
   -0.5047    1.8372   -1.0157 O   0  0  0  0  0  0
    1.4053   -1.1524   -4.8969 O   0  0  0  0  0  0
   -4.1850   -0.7724    0.6566 N   0  0  0  0  0  0
   -4.6639    1.1047   -0.7784 N   0  0  0  0  0  0
   -0.0373   -0.0973    0.0718 N   0  0  0  0  0  0
   -9.3021   -0.6901    0.4401 N   0  0  0  0  0  0
   -2.3623    0.5350   -0.2684 C   0  0  0  0  0  0
   -5.0482    0.0552    0.0019 C   0  0  0  0  0  0
   -0.8869    0.8218   -0.4309 C   0  0  0  0  0  0
   -6.5221   -0.2042    0.1526 C   0  0  0  0  0  0
    1.4304   -0.0438    0.0131 C   0  0  2  0  0  0
    2.0383   -0.0101   -1.3973 C   0  0  0  0  0  0
   -2.8581   -0.5216    0.5131 C   0  0  0  0  0  0
   -3.3301    1.3287   -0.9006 C   0  0  0  0  0  0
    1.4092   -0.6323   -2.4854 C   0  0  0  0  0  0
   -7.4826    0.6064   -0.4827 C   0  0  0  0  0  0
   -7.0079   -1.2682    0.9371 C   0  0  0  0  0  0
    1.9646   -0.5712   -3.7752 C   0  0  0  0  0  0
    3.2352    0.6811   -1.6108 C   0  0  0  0  0  0
    3.1633    0.1213   -3.9573 C   0  0  0  0  0  0
    3.7974    0.7439   -2.8839 C   0  0  0  0  0  0
   -8.8418    0.3349   -0.3171 C   0  0  0  0  0  0
   -8.3837   -1.4745    1.0544 C   0  0  0  0  0  0
    2.0300   -1.1999    0.8313 C   0  0  0  0  0  0
    0.1788   -1.8639   -4.7706 C   0  0  0  0  0  0
   -0.4232   -0.8224    0.6579 H   0  0  0  0  0  0
    1.7147    0.8827    0.5183 H   0  0  0  0  0  0
   -2.2027   -1.1937    1.0477 H   0  0  0  0  0  0
   -3.0535    2.1668   -1.5245 H   0  0  0  0  0  0
    0.4854   -1.1639   -2.3159 H   0  0  0  0  0  0
   -7.1913    1.4427   -1.1013 H   0  0  0  0  0  0
   -6.3359   -1.9357    1.4565 H   0  0  0  0  0  0
    3.7346    1.1714   -0.7877 H   0  0  0  0  0  0
    3.6062    0.1786   -4.9409 H   0  0  0  0  0  0
    4.7234    1.2773   -3.0395 H   0  0  0  0  0  0
   -9.5880    0.9497   -0.7989 H   0  0  0  0  0  0
   -8.7690   -2.2862    1.6540 H   0  0  0  0  0  0
    3.1165   -1.1226    0.8895 H   0  0  0  0  0  0
    1.7897   -2.1683    0.3902 H   0  0  0  0  0  0
    1.6517   -1.1998    1.8544 H   0  0  0  0  0  0
   -0.1229   -2.2377   -5.7490 H   0  0  0  0  0  0
   -0.6223   -1.2214   -4.4020 H   0  0  0  0  0  0
    0.2834   -2.7233   -4.1067 H   0  0  0  0  0  0
  1  9  2  0  0  0
  2 18  1  0  0  0
  2 25  1  0  0  0
  3  8  2  0  0  0
  3 13  1  0  0  0
  4  8  1  0  0  0
  4 14  2  0  0  0
  5  9  1  0  0  0
  5 11  1  0  0  0
  5 26  1  0  0  0
  6 22  2  0  0  0
  6 23  1  0  0  0
  7  9  1  0  0  0
  7 13  2  0  0  0
  7 14  1  0  0  0
  8 10  1  0  0  0
 10 16  2  0  0  0
 10 17  1  0  0  0
 11 12  1  0  0  0
 11 24  1  0  0  0
 11 27  1  0  0  0
 12 15  2  0  0  0
 12 19  1  0  0  0
 13 28  1  0  0  0
 14 29  1  0  0  0
 15 18  1  0  0  0
 15 30  1  0  0  0
 16 22  1  0  0  0
 16 31  1  0  0  0
 17 23  2  0  0  0
 17 32  1  0  0  0
 18 20  2  0  0  0
 19 21  2  0  0  0
 19 33  1  0  0  0
 20 21  1  0  0  0
 20 34  1  0  0  0
 21 35  1  0  0  0
 22 36  1  0  0  0
 23 37  1  0  0  0
 24 38  1  0  0  0
 24 39  1  0  0  0
 24 40  1  0  0  0
 25 41  1  0  0  0
 25 42  1  0  0  0
 25 43  1  0  0  0
M  END
> <chembl_id>
CHEMBL2003514

> <chembl_pref_name>
None

> <s_m_source_file>
sdf/actives_sanitized.sdf

> <i_m_source_file_index>
3

> <i_lp_mmshare_version>
49012

> <i_m_ct_stereo_status>
1

> <i_f3d_flags>
0

> <s_epik_input>
W2NIXTFbY0hdW2NIXWMoT1tDSDNdKVtjSF1jMVtDQEhdKFtDSDNdKVtOSF1DKD1PKWMyW2NIXW5jKG5bY0hdMiktYzNbY0hdW2NIXW5bY0hdW2NIXTM=

> <s_epik_cmdline>
J2VwaWtfcHl0aG9uJywgJy1waHQnLCAnMC41JywgJy1waCcsICc3LjUnLCAnLW50JywgJy1tYScsICcyMDAnLCAnLWltYWUnLCAnPGluZmlsZS5tYWU+JywgJy1vbWFlJywgJzxvdXRmaWxlLm1hZT4n

> <r_lp_tautomer_probability>
1

> <r_epik_Ionization_Penalty>
  0.0002

> <r_epik_Ionization_Penalty_Charging>
  0.0000

> <r_epik_Ionization_Penalty_Neutral>
  0.0002

> <r_epik_State_Penalty>
 -0.0000

> <r_epik_Charging_Adjusted_Penalty>
0

> <i_epik_Tot_Q>
0

> <i_epik_Tot_abs_Q>
0

> <s_lp_Force_Field>
OPLS3e

> <r_lp_Energy>
45.642247

> <b_lp_Chiralities_Consistent>
1

> <s_lp_Variant>
sdf/actives_sanitized.sdf:3-1

$$$$
sdf/actives_sanitized.sdf:4
                    3D
 Schrodinger Suite 2020-1.
 41 43  0  0  1  0            999 V2000
   -5.1218    5.9653    0.8666 F   0  0  0  0  0  0
   -3.1812    5.9824   -0.0812 F   0  0  0  0  0  0
   -3.3654    5.4445    2.0111 F   0  0  0  0  0  0
   -0.1414    2.5696    0.3474 O   0  0  0  0  0  0
   -2.9176    3.1753    0.3332 N   0  0  0  0  0  0
    0.2924    0.3774   -0.1773 N   0  0  0  0  0  0
    4.5123   -0.0683    0.0304 N   0  0  0  0  0  0
   -1.8028    1.0690   -0.1246 N   0  0  0  0  0  0
    2.3016   -0.9813   -0.4760 C   0  0  0  0  0  0
    1.7002    0.2665   -0.1011 C   0  0  0  0  0  0
    3.7264   -1.0944   -0.3932 C   0  0  0  0  0  0
   -4.0807    3.8759    0.4225 C   0  0  0  0  0  0
   -3.9409    5.3462    0.8118 C   0  0  0  0  0  0
   -2.9651    1.8555   -0.0110 C   0  0  0  0  0  0
    1.5658   -2.1144   -0.9291 C   0  0  0  0  0  0
    4.3585   -2.3074   -0.7600 C   0  0  0  0  0  0
   -0.5146    1.4356    0.0447 C   0  0  0  0  0  0
    2.5438    1.3004    0.3372 C   0  0  0  0  0  0
    3.6049   -3.3955   -1.1996 C   0  0  0  0  0  0
   -5.3253    3.2853    0.1728 C   0  0  0  0  0  0
    2.2178   -3.2928   -1.2809 C   0  0  0  0  0  0
    3.9168    1.0923    0.3842 C   0  0  0  0  0  0
   -4.1786    1.2096   -0.2710 C   0  0  0  0  0  0
   -5.3671    1.9354   -0.1773 C   0  0  0  0  0  0
    4.2945   -4.6940   -1.5929 C   0  0  0  0  0  0
    4.2384   -5.7577   -0.4873 C   0  0  0  0  0  0
   -0.1694   -0.4822   -0.4349 H   0  0  0  0  0  0
   -1.9703    0.1059   -0.3750 H   0  0  0  0  0  0
    0.4895   -2.0675   -1.0048 H   0  0  0  0  0  0
    5.4353   -2.3820   -0.6941 H   0  0  0  0  0  0
    2.1753    2.2635    0.6495 H   0  0  0  0  0  0
   -6.2422    3.8519    0.2460 H   0  0  0  0  0  0
    1.6345   -4.1364   -1.6213 H   0  0  0  0  0  0
    4.5749    1.8804    0.7193 H   0  0  0  0  0  0
   -4.2086    0.1638   -0.5428 H   0  0  0  0  0  0
   -6.3141    1.4549   -0.3749 H   0  0  0  0  0  0
    3.8340   -5.0773   -2.5049 H   0  0  0  0  0  0
    5.3334   -4.4929   -1.8599 H   0  0  0  0  0  0
    4.7325   -6.6755   -0.8074 H   0  0  0  0  0  0
    3.2091   -6.0103   -0.2297 H   0  0  0  0  0  0
    4.7363   -5.4131    0.4198 H   0  0  0  0  0  0
  1 13  1  0  0  0
  2 13  1  0  0  0
  3 13  1  0  0  0
  4 17  2  0  0  0
  5 12  2  0  0  0
  5 14  1  0  0  0
  6 10  1  0  0  0
  6 17  1  0  0  0
  6 27  1  0  0  0
  7 11  2  0  0  0
  7 22  1  0  0  0
  8 14  1  0  0  0
  8 17  1  0  0  0
  8 28  1  0  0  0
  9 10  2  0  0  0
  9 11  1  0  0  0
  9 15  1  0  0  0
 10 18  1  0  0  0
 11 16  1  0  0  0
 12 13  1  0  0  0
 12 20  1  0  0  0
 14 23  2  0  0  0
 15 21  2  0  0  0
 15 29  1  0  0  0
 16 19  2  0  0  0
 16 30  1  0  0  0
 18 22  2  0  0  0
 18 31  1  0  0  0
 19 21  1  0  0  0
 19 25  1  0  0  0
 20 24  2  0  0  0
 20 32  1  0  0  0
 21 33  1  0  0  0
 22 34  1  0  0  0
 23 24  1  0  0  0
 23 35  1  0  0  0
 24 36  1  0  0  0
 25 26  1  0  0  0
 25 37  1  0  0  0
 25 38  1  0  0  0
 26 39  1  0  0  0
 26 40  1  0  0  0
 26 41  1  0  0  0
M  END
> <chembl_id>
CHEMBL1986756

> <chembl_pref_name>
None

> <s_m_source_file>
sdf/actives_sanitized.sdf

> <i_m_source_file_index>
4

> <i_lp_mmshare_version>
49012

> <i_m_ct_stereo_status>
1

> <i_f3d_flags>
0

> <s_epik_input>
RkMoRikoRiljMW5jKFtjSF1bY0hdW2NIXTEpW05IXUMoPU8pW05IXWMyW2NIXVtjSF1uYyhjMjMpW2NIXWMoW2NIXVtjSF0zKVtDSDJdW0NIM10=

> <s_epik_cmdline>
J2VwaWtfcHl0aG9uJywgJy1waHQnLCAnMC41JywgJy1waCcsICc3LjUnLCAnLW50JywgJy1tYScsICcyMDAnLCAnLWltYWUnLCAnPGluZmlsZS5tYWU+JywgJy1vbWFlJywgJzxvdXRmaWxlLm1hZT4n

> <r_epik_Ionization_Penalty>
  0.0632

> <r_epik_Ionization_Penalty_Charging>
  0.0000

> <r_epik_Ionization_Penalty_Neutral>
  0.0632

> <r_epik_State_Penalty>
  0.0550

> <r_epik_Charging_Adjusted_Penalty>
0.0549563390220482

> <i_epik_Tot_Q>
0

> <i_epik_Tot_abs_Q>
0

> <s_lp_Force_Field>
OPLS3e

> <r_lp_Energy>
47.414156

> <b_lp_Chiralities_Consistent>
1

> <s_lp_Variant>
sdf/actives_sanitized.sdf:4-1

$$$$
sdf/actives_sanitized.sdf:5
                    3D
 Schrodinger Suite 2020-1.
 74 77  0  0  1  0            999 V2000
    0.4117    4.8580    1.7128 S   0  0  0  0  0  0
    0.6716   13.7104    3.1831 O   0  0  0  0  0  0
   -3.0765    6.0014   -0.9518 N   0  0  0  0  0  0
   -2.9367    8.1977   -0.2201 N   0  0  0  0  0  0
   -1.4021   12.7376    3.1178 N   0  0  0  0  0  0
   -1.2515   14.8928    3.5668 N   0  0  0  0  0  0
    8.4091   -0.1046   -3.7474 N   0  3  0  0  0  0
   -1.3829    6.5294    0.7138 C   0  0  0  0  0  0
   -0.9576    5.1587    0.6469 C   0  0  0  0  0  0
   -0.6057    7.2940    1.6591 C   0  0  0  0  0  0
   -2.4568    6.8903   -0.1404 C   0  0  0  0  0  0
   -1.6040    4.2334   -0.1996 C   0  0  0  0  0  0
   -0.7906    8.7253    2.0297 C   0  0  0  0  0  0
    0.3856    6.5169    2.2256 C   0  0  0  0  0  0
   -2.6591    4.7174   -0.9686 C   0  0  0  0  0  0
   -1.9893    9.1526    2.6038 C   0  0  0  0  0  0
    0.2441    9.6388    1.8193 C   0  0  0  0  0  0
   -1.2119    2.8337   -0.2964 C   0  0  0  0  0  0
   -1.1263   11.4079    2.7457 C   0  0  0  0  0  0
   -2.1581   10.4894    2.9529 C   0  0  0  0  0  0
    0.0792   10.9764    2.1692 C   0  0  0  0  0  0
   -0.8581    1.6675   -0.3753 C   0  0  0  0  0  0
   -0.5544   13.7738    3.2823 C   0  0  0  0  0  0
   -0.3980    0.2705   -0.4773 C   0  0  0  0  0  0
   -0.7713   16.1829    3.8602 C   0  0  0  0  0  0
   -1.6828   17.2346    3.7182 C   0  0  0  0  0  0
    0.5308   16.4628    4.3088 C   0  0  0  0  0  0
   -1.3022   18.5514    3.9921 C   0  0  0  0  0  0
    1.1306    0.0740   -0.3824 C   0  0  0  0  0  0
    0.9099   17.7758    4.5877 C   0  0  0  0  0  0
   -0.0022   18.8178    4.4288 C   0  0  0  0  0  0
    1.9408    0.7517   -1.5081 C   0  0  0  0  0  0
   -2.3049   19.6799    3.8328 C   0  0  0  0  0  0
    3.4513    0.4729   -1.4130 C   0  0  0  0  0  0
    4.2565    1.1654   -2.5269 C   0  0  0  0  0  0
    5.7678    0.8866   -2.4417 C   0  0  0  0  0  0
    6.5692    1.6005   -3.5475 C   0  0  0  0  0  0
    8.0863    1.3661   -3.4656 C   0  0  0  0  0  0
   -2.5091    8.9204    0.3416 H   0  0  0  0  0  0
   -3.6912    8.4097   -0.8575 H   0  0  0  0  0  0
   -2.3730   12.9181    3.3253 H   0  0  0  0  0  0
   -2.2569   14.8232    3.5116 H   0  0  0  0  0  0
    9.4069   -0.2565   -3.7027 H   0  0  0  0  0  0
    8.0823   -0.3627   -4.6676 H   0  0  0  0  0  0
    1.1109    6.8418    2.9576 H   0  0  0  0  0  0
   -3.2004    4.0661   -1.6405 H   0  0  0  0  0  0
   -2.7925    8.4508    2.7766 H   0  0  0  0  0  0
    1.1750    9.3167    1.3752 H   0  0  0  0  0  0
   -3.0957   10.8036    3.3894 H   0  0  0  0  0  0
    0.8940   11.6535    1.9682 H   0  0  0  0  0  0
   -0.8924   -0.2882    0.3179 H   0  0  0  0  0  0
   -0.7723   -0.1293   -1.4202 H   0  0  0  0  0  0
   -2.6920   17.0340    3.3858 H   0  0  0  0  0  0
    1.2585   15.6820    4.4646 H   0  0  0  0  0  0
    1.4844    0.4328    0.5861 H   0  0  0  0  0  0
    1.3387   -0.9968   -0.3943 H   0  0  0  0  0  0
    1.9116   17.9847    4.9332 H   0  0  0  0  0  0
    0.3040   19.8302    4.6495 H   0  0  0  0  0  0
    1.5695    0.4087   -2.4750 H   0  0  0  0  0  0
    1.7752    1.8298   -1.4823 H   0  0  0  0  0  0
   -1.9942   20.5767    4.3703 H   0  0  0  0  0  0
   -3.2741   19.3850    4.2371 H   0  0  0  0  0  0
   -2.4408   19.9229    2.7786 H   0  0  0  0  0  0
    3.8194    0.8041   -0.4405 H   0  0  0  0  0  0
    3.6237   -0.6037   -1.4553 H   0  0  0  0  0  0
    3.8829    0.8384   -3.4987 H   0  0  0  0  0  0
    4.0830    2.2419   -2.4794 H   0  0  0  0  0  0
    6.1381    1.2038   -1.4655 H   0  0  0  0  0  0
    5.9351   -0.1900   -2.4979 H   0  0  0  0  0  0
    6.2065    1.2867   -4.5277 H   0  0  0  0  0  0
    6.3821    2.6738   -3.4905 H   0  0  0  0  0  0
    8.5040    1.5750   -2.4800 H   0  0  0  0  0  0
    8.6377    1.9176   -4.2278 H   0  0  0  0  0  0
    7.9592   -0.6970   -3.0641 H   0  0  0  0  0  0
  1  9  1  0  0  0
  1 14  1  0  0  0
  2 23  2  0  0  0
  3 11  2  0  0  0
  3 15  1  0  0  0
  4 11  1  0  0  0
  4 39  1  0  0  0
  4 40  1  0  0  0
  5 19  1  0  0  0
  5 23  1  0  0  0
  5 41  1  0  0  0
  6 23  1  0  0  0
  6 25  1  0  0  0
  6 42  1  0  0  0
  7 38  1  0  0  0
  7 43  1  0  0  0
  7 44  1  0  0  0
  7 74  1  0  0  0
  8  9  2  0  0  0
  8 10  1  0  0  0
  8 11  1  0  0  0
  9 12  1  0  0  0
 10 13  1  0  0  0
 10 14  2  0  0  0
 12 15  2  0  0  0
 12 18  1  0  0  0
 13 16  2  0  0  0
 13 17  1  0  0  0
 14 45  1  0  0  0
 15 46  1  0  0  0
 16 20  1  0  0  0
 16 47  1  0  0  0
 17 21  2  0  0  0
 17 48  1  0  0  0
 18 22  3  0  0  0
 19 20  2  0  0  0
 19 21  1  0  0  0
 20 49  1  0  0  0
 21 50  1  0  0  0
 22 24  1  0  0  0
 24 29  1  0  0  0
 24 51  1  0  0  0
 24 52  1  0  0  0
 25 26  2  0  0  0
 25 27  1  0  0  0
 26 28  1  0  0  0
 26 53  1  0  0  0
 27 30  2  0  0  0
 27 54  1  0  0  0
 28 31  2  0  0  0
 28 33  1  0  0  0
 29 32  1  0  0  0
 29 55  1  0  0  0
 29 56  1  0  0  0
 30 31  1  0  0  0
 30 57  1  0  0  0
 31 58  1  0  0  0
 32 34  1  0  0  0
 32 59  1  0  0  0
 32 60  1  0  0  0
 33 61  1  0  0  0
 33 62  1  0  0  0
 33 63  1  0  0  0
 34 35  1  0  0  0
 34 64  1  0  0  0
 34 65  1  0  0  0
 35 36  1  0  0  0
 35 66  1  0  0  0
 35 67  1  0  0  0
 36 37  1  0  0  0
 36 68  1  0  0  0
 36 69  1  0  0  0
 37 38  1  0  0  0
 37 70  1  0  0  0
 37 71  1  0  0  0
 38 72  1  0  0  0
 38 73  1  0  0  0
M  CHG  1   7   1
M  END
> <chembl_id>
CHEMBL1978166

> <chembl_pref_name>
None

> <s_m_source_file>
sdf/actives_sanitized.sdf

> <i_m_source_file_index>
5

> <i_lp_mmshare_version>
49012

> <i_m_ct_stereo_status>
1

> <i_f3d_flags>
0

> <s_epik_input>
W05IMl1bQ0gyXVtDSDJdW0NIMl1bQ0gyXVtDSDJdW0NIMl1bQ0gyXVtDSDJdQyNDYyhbY0hdbmMxW05IMl0pYyhjMTIpc1tjSF1jMi1jM1tjSF1bY0hdYyhbY0hdW2NIXTMpW05IXUMoPU8pW05IXWM0W2NIXWMoW0NIM10pW2NIXVtjSF1bY0hdNA==

> <s_epik_cmdline>
J2VwaWtfcHl0aG9uJywgJy1waHQnLCAnMC41JywgJy1waCcsICc3LjUnLCAnLW50JywgJy1tYScsICcyMDAnLCAnLWltYWUnLCAnPGluZmlsZS5tYWU+JywgJy1vbWFlJywgJzxvdXRmaWxlLm1hZT4n

> <r_epik_Ionization_Penalty>
  0.0934

> <r_epik_Ionization_Penalty_Charging>
  0.0011

> <r_epik_Ionization_Penalty_Neutral>
  0.0922

> <r_epik_State_Penalty>
  0.0825

> <r_epik_Charging_Adjusted_Penalty>
0.0836558942869396

> <i_epik_Tot_Q>
1

> <i_epik_Tot_abs_Q>
1

> <s_lp_Force_Field>
OPLS3e

> <r_lp_Energy>
54.774549

> <b_lp_Chiralities_Consistent>
1

> <s_lp_Variant>
sdf/actives_sanitized.sdf:5-1

$$$$
sdf/actives_sanitized.sdf:6
                    3D
 Schrodinger Suite 2020-1.
 62 66  0  0  1  0            999 V2000
   -0.1355    2.9223   -0.7666 S   0  0  0  0  0  0
    5.9064   -0.4063    1.6923 O   0  0  0  0  0  0
   -8.3296    6.2939    0.6134 O   0  0  0  0  0  0
   -2.0220   -0.8107    0.9798 N   0  0  0  0  0  0
    3.6820    0.5289   -0.0425 N   0  0  0  0  0  0
   -4.1020    0.2135    0.9634 N   0  0  0  0  0  0
    3.5508   -0.7805   -0.2868 N   0  0  0  0  0  0
   -8.2202    4.1820   -0.2683 N   0  0  0  0  0  0
  -10.1959    5.1303   -0.0257 N   0  0  0  0  0  0
   -2.1528    1.4562    0.1126 C   0  0  0  0  0  0
   -0.7290    1.4130   -0.0836 C   0  0  0  0  0  0
   -2.7226    2.7152   -0.3015 C   0  0  0  0  0  0
    0.0266    0.2652    0.2473 C   0  0  0  0  0  0
   -2.7399    0.2936    0.6728 C   0  0  0  0  0  0
    1.5060    0.1513    0.0802 C   0  0  0  0  0  0
   -4.1582    3.1102   -0.2709 C   0  0  0  0  0  0
   -1.7442    3.5726   -0.7613 C   0  0  0  0  0  0
   -0.6897   -0.8134    0.7643 C   0  0  0  0  0  0
    2.4783    1.1332    0.2084 C   0  0  0  0  0  0
    2.2571   -0.9981   -0.2223 C   0  0  0  0  0  0
   -4.5607    4.1966    0.5080 C   0  0  0  0  0  0
   -5.0977    2.4152   -1.0345 C   0  0  0  0  0  0
   -6.8444    3.8846   -0.2341 C   0  0  0  0  0  0
   -5.8983    4.5820    0.5339 C   0  0  0  0  0  0
   -6.4357    2.7972   -1.0096 C   0  0  0  0  0  0
    5.0101    1.1327    0.0220 C   0  0  0  0  0  0
    5.6622    0.9595    1.4138 C   0  0  2  0  0  0
   -8.8685    5.2873    0.1526 C   0  0  0  0  0  0
  -11.2488    6.0035    0.3064 C   0  0  0  0  0  0
  -12.4880    5.7300   -0.2825 C   0  0  0  0  0  0
    6.9948    1.7155    1.5285 C   0  0  0  0  0  0
  -11.1386    7.0887    1.1930 C   0  0  0  0  0  0
  -13.6013    6.5301   -0.0097 C   0  0  0  0  0  0
  -12.2477    7.8902    1.4625 C   0  0  0  0  0  0
  -13.4744    7.6156    0.8601 C   0  0  0  0  0  0
  -14.9336    6.2333   -0.6736 C   0  0  0  0  0  0
    5.0888   -0.8937    1.5643 H   0  0  0  0  0  0
   -4.6992    1.0061    0.7742 H   0  0  0  0  0  0
   -4.4707   -0.6317    1.3758 H   0  0  0  0  0  0
   -8.7871    3.4725   -0.7085 H   0  0  0  0  0  0
  -10.4876    4.2889   -0.5005 H   0  0  0  0  0  0
   -1.8972    4.5774   -1.1279 H   0  0  0  0  0  0
   -0.1839   -1.7265    1.0426 H   0  0  0  0  0  0
    2.4256    2.1833    0.4554 H   0  0  0  0  0  0
    1.8534   -1.9858   -0.3904 H   0  0  0  0  0  0
   -3.8396    4.7396    1.1020 H   0  0  0  0  0  0
   -4.7933    1.5777   -1.6458 H   0  0  0  0  0  0
   -6.1705    5.4118    1.1661 H   0  0  0  0  0  0
   -7.1503    2.2447   -1.6031 H   0  0  0  0  0  0
    5.6337    0.7052   -0.7660 H   0  0  0  0  0  0
    4.9014    2.1926   -0.2137 H   0  0  0  0  0  0
    4.9836    1.3386    2.1797 H   0  0  0  0  0  0
  -12.5909    4.8936   -0.9602 H   0  0  0  0  0  0
    6.8541    2.7838    1.3604 H   0  0  0  0  0  0
    7.7214    1.3609    0.7959 H   0  0  0  0  0  0
    7.4359    1.5965    2.5192 H   0  0  0  0  0  0
  -10.2136    7.3249    1.6947 H   0  0  0  0  0  0
  -12.1563    8.7243    2.1426 H   0  0  0  0  0  0
  -14.3257    8.2448    1.0760 H   0  0  0  0  0  0
  -15.5429    7.1339   -0.7590 H   0  0  0  0  0  0
  -15.4860    5.4832   -0.1072 H   0  0  0  0  0  0
  -14.7839    5.8595   -1.6874 H   0  0  0  0  0  0
  1 11  1  0  0  0
  1 17  1  0  0  0
  2 27  1  0  0  0
  2 37  1  0  0  0
  3 28  2  0  0  0
  4 14  2  0  0  0
  4 18  1  0  0  0
  5  7  1  0  0  0
  5 19  1  0  0  0
  5 26  1  0  0  0
  6 14  1  0  0  0
  6 38  1  0  0  0
  6 39  1  0  0  0
  7 20  2  0  0  0
  8 23  1  0  0  0
  8 28  1  0  0  0
  8 40  1  0  0  0
  9 28  1  0  0  0
  9 29  1  0  0  0
  9 41  1  0  0  0
 10 11  2  0  0  0
 10 12  1  0  0  0
 10 14  1  0  0  0
 11 13  1  0  0  0
 12 16  1  0  0  0
 12 17  2  0  0  0
 13 15  1  0  0  0
 13 18  2  0  0  0
 15 19  2  0  0  0
 15 20  1  0  0  0
 16 21  2  0  0  0
 16 22  1  0  0  0
 17 42  1  0  0  0
 18 43  1  0  0  0
 19 44  1  0  0  0
 20 45  1  0  0  0
 21 24  1  0  0  0
 21 46  1  0  0  0
 22 25  2  0  0  0
 22 47  1  0  0  0
 23 24  2  0  0  0
 23 25  1  0  0  0
 24 48  1  0  0  0
 25 49  1  0  0  0
 26 27  1  0  0  0
 26 50  1  0  0  0
 26 51  1  0  0  0
 27 31  1  0  0  0
 27 52  1  0  0  0
 29 30  2  0  0  0
 29 32  1  0  0  0
 30 33  1  0  0  0
 30 53  1  0  0  0
 31 54  1  0  0  0
 31 55  1  0  0  0
 31 56  1  0  0  0
 32 34  2  0  0  0
 32 57  1  0  0  0
 33 35  2  0  0  0
 33 36  1  0  0  0
 34 35  1  0  0  0
 34 58  1  0  0  0
 35 59  1  0  0  0
 36 60  1  0  0  0
 36 61  1  0  0  0
 36 62  1  0  0  0
M  END
> <chembl_id>
CHEMBL1989708

> <chembl_pref_name>
None

> <s_m_source_file>
sdf/actives_sanitized.sdf

> <i_m_source_file_index>
6

> <i_lp_mmshare_version>
49012

> <i_m_ct_stereo_status>
1

> <i_f3d_flags>
0

> <s_epik_input>
W09IXVtDQEBIXShbQ0gzXSlbQ0gyXW4xbltjSF1jKFtjSF0xKS1jKFtjSF1uYzJbTkgyXSljKGMyMylzW2NIXWMzLWM0W2NIXVtjSF1jKFtjSF1bY0hdNClbTkhdQyg9TylbTkhdYzVbY0hdYyhbQ0gzXSlbY0hdW2NIXVtjSF01

> <s_epik_cmdline>
J2VwaWtfcHl0aG9uJywgJy1waHQnLCAnMC41JywgJy1waCcsICc3LjUnLCAnLW50JywgJy1tYScsICcyMDAnLCAnLWltYWUnLCAnPGluZmlsZS5tYWU+JywgJy1vbWFlJywgJzxvdXRmaWxlLm1hZT4n

> <r_lp_tautomer_probability>
1

> <r_epik_Ionization_Penalty>
  0.1173

> <r_epik_Ionization_Penalty_Charging>
  0.0000

> <r_epik_Ionization_Penalty_Neutral>
  0.1173

> <r_epik_State_Penalty>
  0.1069

> <r_epik_Charging_Adjusted_Penalty>
0.106864179686304

> <i_epik_Tot_Q>
0

> <i_epik_Tot_abs_Q>
0

> <s_lp_Force_Field>
OPLS3e

> <r_lp_Energy>
47.657781

> <b_lp_Chiralities_Consistent>
1

> <s_lp_Variant>
sdf/actives_sanitized.sdf:6-1

$$$$
sdf/actives_sanitized.sdf:7
                    3D
 Schrodinger Suite 2020-1.
 83 87  0  0  1  0            999 V2000
   -3.2441   -0.3553   -0.2700 C   0  0  0  0  0  0
   -2.3399   -1.2558    0.3195 C   0  0  0  0  0  0
   -0.9974   -1.0574    0.2163 N   0  0  0  0  0  0
   -0.5588    0.0258   -0.4742 C   0  0  0  0  0  0
   -1.3699    0.9411   -1.0667 N   0  0  0  0  0  0
   -2.7065    0.7348   -0.9571 C   0  0  0  0  0  0
    0.8370    0.1749   -0.5113 N   0  0  0  0  0  0
    1.7237    1.0388   -1.1875 C   0  0  0  0  0  0
    1.3109    1.8873   -2.2224 C   0  0  0  0  0  0
    2.2202    2.7211   -2.8653 C   0  0  0  0  0  0
    3.5708    2.7331   -2.5045 C   0  0  0  0  0  0
    3.9839    1.8729   -1.4765 C   0  0  0  0  0  0
    3.0798    1.0220   -0.8145 C   0  0  0  0  0  0
    3.4580    0.1615    0.2054 O   0  0  0  0  0  0
    4.8203    0.1003    0.6143 C   0  0  0  0  0  0
    4.4514    3.5932   -3.1596 N   0  0  0  0  0  0
    5.9115    3.3769   -3.1014 C   0  0  0  0  0  0
    6.6900    4.1068   -4.2165 C   0  0  0  0  0  0
    6.3676    5.6138   -4.2435 C   0  0  0  0  0  0
    4.8462    5.8223   -4.2738 C   0  0  0  0  0  0
    4.1420    5.0375   -3.1483 C   0  0  0  0  0  0
    7.0426    6.3779   -5.4175 N   0  3  0  0  0  0
    6.8036    5.7882   -6.8310 C   0  0  0  0  0  0
    7.4674    6.7218   -7.8718 C   0  0  0  0  0  0
    8.9046    6.9031   -7.6340 N   0  0  1  0  0  0
    9.1452    7.4446   -6.2915 C   0  0  0  0  0  0
    8.5609    6.5487   -5.1730 C   0  0  0  0  0  0
    9.7095    5.7232   -7.9459 C   0  0  0  0  0  0
   -2.8395   -2.3704    1.0206 N   0  0  0  0  0  0
   -2.2839   -3.4899    1.6752 C   0  0  0  0  0  0
   -3.1407   -4.4241    2.3043 C   0  0  0  0  0  0
   -2.5945   -5.5411    2.9498 C   0  0  0  0  0  0
   -1.2192   -5.7453    2.9837 C   0  0  0  0  0  0
   -0.3710   -4.8334    2.3684 C   0  0  0  0  0  0
   -0.8977   -3.7191    1.7203 C   0  0  0  0  0  0
   -4.9489   -4.2833    2.3185 S   0  0  0  0  0  0
   -5.5076   -5.1762    0.7315 C   0  0  0  0  0  0
   -4.9222   -4.4966   -0.5173 C   0  0  0  0  0  0
   -7.0439   -5.2189    0.7048 C   0  0  0  0  0  0
   -5.4307   -5.0721    3.4587 O   0  0  0  0  0  0
   -5.3176   -2.8662    2.2239 O   0  0  0  0  0  0
   -4.9624   -0.5437   -0.1740 Cl  0  0  0  0  0  0
   -3.3474    1.4639   -1.4311 H   0  0  0  0  0  0
    1.3155   -0.4916    0.0775 H   0  0  0  0  0  0
    0.2905    1.9129   -2.5663 H   0  0  0  0  0  0
    1.8617    3.3540   -3.6642 H   0  0  0  0  0  0
    5.0217    1.8751   -1.1827 H   0  0  0  0  0  0
    4.9214   -0.6292    1.4176 H   0  0  0  0  0  0
    5.1673    1.0612    0.9969 H   0  0  0  0  0  0
    5.4694   -0.2176   -0.2029 H   0  0  0  0  0  0
    6.2792    3.6756   -2.1184 H   0  0  0  0  0  0
    6.1102    2.3090   -3.2056 H   0  0  0  0  0  0
    7.7627    3.9438   -4.1174 H   0  0  0  0  0  0
    6.4418    3.6249   -5.1618 H   0  0  0  0  0  0
    6.7143    6.0530   -3.3056 H   0  0  0  0  0  0
    4.6103    6.8863   -4.2289 H   0  0  0  0  0  0
    4.4170    5.5042   -5.2238 H   0  0  0  0  0  0
    3.0692    5.1963   -3.2586 H   0  0  0  0  0  0
    4.4128    5.4427   -2.1717 H   0  0  0  0  0  0
    7.2179    4.7810   -6.8600 H   0  0  0  0  0  0
    5.7266    5.7391   -6.9835 H   0  0  0  0  0  0
    7.3158    6.3211   -8.8753 H   0  0  0  0  0  0
    6.9799    7.6981   -7.8650 H   0  0  0  0  0  0
   10.2182    7.5704   -6.1395 H   0  0  0  0  0  0
    8.7174    8.4466   -6.2310 H   0  0  0  0  0  0
    8.6657    7.0200   -4.1949 H   0  0  0  0  0  0
    9.0143    5.5575   -5.1438 H   0  0  0  0  0  0
   10.7708    5.9443   -7.8264 H   0  0  0  0  0  0
    9.5545    5.4188   -8.9817 H   0  0  0  0  0  0
    9.4693    4.8746   -7.3054 H   0  0  0  0  0  0
   -3.8488   -2.3622    1.0735 H   0  0  0  0  0  0
   -3.2343   -6.2679    3.4282 H   0  0  0  0  0  0
   -0.8121   -6.6113    3.4845 H   0  0  0  0  0  0
    0.6975   -4.9896    2.3902 H   0  0  0  0  0  0
   -0.1871   -3.0562    1.2592 H   0  0  0  0  0  0
   -5.1203   -6.1932    0.8010 H   0  0  0  0  0  0
   -5.2695   -4.9845   -1.4285 H   0  0  0  0  0  0
   -3.8339   -4.5463   -0.5245 H   0  0  0  0  0  0
   -5.2101   -3.4471   -0.5731 H   0  0  0  0  0  0
   -7.4109   -5.7541   -0.1716 H   0  0  0  0  0  0
   -7.4688   -4.2147    0.6870 H   0  0  0  0  0  0
   -7.4386   -5.7268    1.5853 H   0  0  0  0  0  0
    6.6579    7.3120   -5.4171 H   0  0  0  0  0  0
  1  2  2  0  0  0
  1  6  1  0  0  0
  1 42  1  0  0  0
  2  3  1  0  0  0
  2 29  1  0  0  0
  3  4  2  0  0  0
  4  5  1  0  0  0
  4  7  1  0  0  0
  5  6  2  0  0  0
  6 43  1  0  0  0
  7  8  1  0  0  0
  7 44  1  0  0  0
  8  9  2  0  0  0
  8 13  1  0  0  0
  9 10  1  0  0  0
  9 45  1  0  0  0
 10 11  2  0  0  0
 10 46  1  0  0  0
 11 12  1  0  0  0
 11 16  1  0  0  0
 12 13  2  0  0  0
 12 47  1  0  0  0
 13 14  1  0  0  0
 14 15  1  0  0  0
 15 48  1  0  0  0
 15 49  1  0  0  0
 15 50  1  0  0  0
 16 17  1  0  0  0
 16 21  1  0  0  0
 17 18  1  0  0  0
 17 51  1  0  0  0
 17 52  1  0  0  0
 18 19  1  0  0  0
 18 53  1  0  0  0
 18 54  1  0  0  0
 19 20  1  0  0  0
 19 22  1  0  0  0
 19 55  1  0  0  0
 20 21  1  0  0  0
 20 56  1  0  0  0
 20 57  1  0  0  0
 21 58  1  0  0  0
 21 59  1  0  0  0
 22 23  1  0  0  0
 22 27  1  0  0  0
 22 83  1  0  0  0
 23 24  1  0  0  0
 23 60  1  0  0  0
 23 61  1  0  0  0
 24 25  1  0  0  0
 24 62  1  0  0  0
 24 63  1  0  0  0
 25 26  1  0  0  0
 25 28  1  0  0  0
 26 27  1  0  0  0
 26 64  1  0  0  0
 26 65  1  0  0  0
 27 66  1  0  0  0
 27 67  1  0  0  0
 28 68  1  0  0  0
 28 69  1  0  0  0
 28 70  1  0  0  0
 29 30  1  0  0  0
 29 71  1  0  0  0
 30 31  2  0  0  0
 30 35  1  0  0  0
 31 32  1  0  0  0
 31 36  1  0  0  0
 32 33  2  0  0  0
 32 72  1  0  0  0
 33 34  1  0  0  0
 33 73  1  0  0  0
 34 35  2  0  0  0
 34 74  1  0  0  0
 35 75  1  0  0  0
 36 37  1  0  0  0
 36 40  2  0  0  0
 36 41  2  0  0  0
 37 38  1  0  0  0
 37 39  1  0  0  0
 37 76  1  0  0  0
 38 77  1  0  0  0
 38 78  1  0  0  0
 38 79  1  0  0  0
 39 80  1  0  0  0
 39 81  1  0  0  0
 39 82  1  0  0  0
M  CHG  1  22   1
M  END
> <chembl_id>
CHEMBL509032

> <chembl_pref_name>
TAE-684

> <s_m_source_file>
sdf/actives_sanitized.sdf

> <i_m_source_file_index>
7

> <i_lp_mmshare_version>
49012

> <i_m_ct_stereo_status>
1

> <i_f3d_flags>
0

> <s_epik_input>
W2NIXTFbY0hdW2NIXVtjSF1jKFMoPU8pKD1PKVtDSF0oW0NIM10pW0NIM10pYzFbTkhdYyhjMkNsKW5jKG5bY0hdMilbTkhdYzNbY0hdW2NIXWMoW2NIXWMzT1tDSDNdKU40W0NIMl1bQ0gyXVtDSF0oW0NIMl1bQ0gyXTQpTjVbQ0gyXVtDSDJdTihbQ0gzXSlbQ0gyXVtDSDJdNQ==

> <s_epik_cmdline>
J2VwaWtfcHl0aG9uJywgJy1waHQnLCAnMC41JywgJy1waCcsICc3LjUnLCAnLW50JywgJy1tYScsICcyMDAnLCAnLWltYWUnLCAnPGluZmlsZS5tYWU+JywgJy1vbWFlJywgJzxvdXRmaWxlLm1hZT4n

> <r_lp_tautomer_probability>
1

> <r_epik_Ionization_Penalty>
  0.0047

> <r_epik_Ionization_Penalty_Charging>
  0.0021

> <r_epik_Ionization_Penalty_Neutral>
  0.0026

> <r_epik_State_Penalty>
 -0.0000

> <r_epik_Charging_Adjusted_Penalty>
0.00212302091262528

> <i_epik_Tot_Q>
1

> <i_epik_Tot_abs_Q>
1

> <s_lp_Force_Field>
OPLS3e

> <r_lp_Energy>
83.359184

> <b_lp_Chiralities_Consistent>
1

> <s_lp_Variant>
sdf/actives_sanitized.sdf:7-1

$$$$
sdf/actives_sanitized.sdf:8
                    3D
 Schrodinger Suite 2020-1.
 58 61  0  0  1  0            999 V2000
    2.5644   -3.1048   -6.0319 Cl  0  0  0  0  0  0
    0.1604    2.2072   -0.2238 O   0  0  0  0  0  0
   -0.2090   -2.5297    0.2887 O   0  0  0  0  0  0
    4.2222   -0.3454   -0.4389 N   0  0  0  0  0  0
    6.0587   -0.9108   -1.8230 N   0  3  0  0  0  0
    1.9918   -0.7735   -1.1261 N   0  0  0  0  0  0
    6.4466    0.1248    0.2869 N   0  0  0  0  0  0
    3.8483   -1.3995   -2.6116 C   0  0  0  0  0  0
    3.3739   -0.8363   -1.3838 C   0  0  0  0  0  0
    5.2620   -1.4274   -2.8192 C   0  0  0  0  0  0
    5.5536   -0.3949   -0.6912 C   0  0  0  0  0  0
    3.0215   -1.9347   -3.6390 C   0  0  0  0  0  0
   -0.0734   -0.1583    0.0341 C   0  0  0  0  0  0
    5.8206   -1.9627   -3.9991 C   0  0  0  0  0  0
    3.5883   -2.4612   -4.8006 C   0  0  0  0  0  0
    1.4476   -0.2712    0.1318 C   0  0  0  0  0  0
   -0.6715    1.1038   -0.1367 C   0  0  0  0  0  0
   -0.8624   -1.3199    0.1249 C   0  0  0  0  0  0
    4.9714   -2.4741   -4.9780 C   0  0  0  0  0  0
    6.0209    0.7874    1.5314 C   0  0  0  0  0  0
   -2.0710    1.1863   -0.2169 C   0  0  0  0  0  0
   -2.2588   -1.2018    0.0406 C   0  0  0  0  0  0
   -2.8562    0.0422   -0.1282 C   0  0  0  0  0  0
    5.6728    2.2695    1.2478 C   0  0  0  0  0  0
    7.1262    0.6171    2.5993 C   0  0  0  0  0  0
    5.4276    3.0786    2.5361 C   0  0  0  0  0  0
    6.8588    1.4494    3.8685 C   0  0  0  0  0  0
    6.5802    2.9284    3.5454 C   0  0  0  0  0  0
   -0.4030    3.5040   -0.3908 C   0  0  0  0  0  0
   -0.9664   -3.7327    0.3679 C   0  0  0  0  0  0
    1.3476   -1.1655   -1.7973 H   0  0  0  0  0  0
    7.4259    0.1821    0.0485 H   0  0  0  0  0  0
    1.9476   -1.9355   -3.5196 H   0  0  0  0  0  0
    6.8923   -1.9729   -4.1359 H   0  0  0  0  0  0
    1.7140   -0.9556    0.9384 H   0  0  0  0  0  0
    1.9047    0.6857    0.3869 H   0  0  0  0  0  0
    5.3920   -2.8856   -5.8844 H   0  0  0  0  0  0
    5.1274    0.2694    1.8838 H   0  0  0  0  0  0
   -2.5717    2.1331   -0.3496 H   0  0  0  0  0  0
   -2.9012   -2.0669    0.1035 H   0  0  0  0  0  0
   -3.9317    0.1197   -0.1915 H   0  0  0  0  0  0
    6.4825    2.7404    0.6872 H   0  0  0  0  0  0
    4.7849    2.3312    0.6167 H   0  0  0  0  0  0
    7.2167   -0.4345    2.8756 H   0  0  0  0  0  0
    8.0923    0.9126    2.1851 H   0  0  0  0  0  0
    5.2841    4.1315    2.2904 H   0  0  0  0  0  0
    4.4970    2.7461    2.9990 H   0  0  0  0  0  0
    6.0046    1.0292    4.4023 H   0  0  0  0  0  0
    7.7079    1.3715    4.5486 H   0  0  0  0  0  0
    7.4821    3.3912    3.1418 H   0  0  0  0  0  0
    6.3441    3.4700    4.4623 H   0  0  0  0  0  0
    0.3991    4.2405   -0.4349 H   0  0  0  0  0  0
   -1.0494    3.7712    0.4465 H   0  0  0  0  0  0
   -0.9693    3.5778   -1.3204 H   0  0  0  0  0  0
   -0.2882   -4.5776    0.4869 H   0  0  0  0  0  0
   -1.5458   -3.9013   -0.5411 H   0  0  0  0  0  0
   -1.6387   -3.7264    1.2273 H   0  0  0  0  0  0
    7.0611   -0.9152   -1.9417 H   0  0  0  0  0  0
  1 15  1  0  0  0
  2 17  1  0  0  0
  2 29  1  0  0  0
  3 18  1  0  0  0
  3 30  1  0  0  0
  4  9  2  0  0  0
  4 11  1  0  0  0
  5 10  1  0  0  0
  5 11  2  0  0  0
  5 58  1  0  0  0
  6  9  1  0  0  0
  6 16  1  0  0  0
  6 31  1  0  0  0
  7 11  1  0  0  0
  7 20  1  0  0  0
  7 32  1  0  0  0
  8  9  1  0  0  0
  8 10  2  0  0  0
  8 12  1  0  0  0
 10 14  1  0  0  0
 12 15  2  0  0  0
 12 33  1  0  0  0
 13 16  1  0  0  0
 13 17  2  0  0  0
 13 18  1  0  0  0
 14 19  2  0  0  0
 14 34  1  0  0  0
 15 19  1  0  0  0
 16 35  1  0  0  0
 16 36  1  0  0  0
 17 21  1  0  0  0
 18 22  2  0  0  0
 19 37  1  0  0  0
 20 24  1  0  0  0
 20 25  1  0  0  0
 20 38  1  0  0  0
 21 23  2  0  0  0
 21 39  1  0  0  0
 22 23  1  0  0  0
 22 40  1  0  0  0
 23 41  1  0  0  0
 24 26  1  0  0  0
 24 42  1  0  0  0
 24 43  1  0  0  0
 25 27  1  0  0  0
 25 44  1  0  0  0
 25 45  1  0  0  0
 26 28  1  0  0  0
 26 46  1  0  0  0
 26 47  1  0  0  0
 27 28  1  0  0  0
 27 48  1  0  0  0
 27 49  1  0  0  0
 28 50  1  0  0  0
 28 51  1  0  0  0
 29 52  1  0  0  0
 29 53  1  0  0  0
 29 54  1  0  0  0
 30 55  1  0  0  0
 30 56  1  0  0  0
 30 57  1  0  0  0
M  CHG  1   5   1
M  END
> <chembl_id>
CHEMBL1996646

> <chembl_pref_name>
None

> <s_m_source_file>
sdf/actives_sanitized.sdf

> <i_m_source_file_index>
8

> <i_lp_mmshare_version>
49012

> <i_m_ct_stereo_status>
1

> <i_f3d_flags>
0

> <s_epik_input>
W0NIMl0xW0NIMl1bQ0gyXVtDSDJdW0NIMl1bQ0hdMVtOSF1jKG5jKGMyMylbY0hdW2NIXWMoQ2wpW2NIXTMpbmMyW05IXVtDSDJdYzRjKE9bQ0gzXSlbY0hdW2NIXVtjSF1jNE9bQ0gzXQ==

> <s_epik_cmdline>
J2VwaWtfcHl0aG9uJywgJy1waHQnLCAnMC41JywgJy1waCcsICc3LjUnLCAnLW50JywgJy1tYScsICcyMDAnLCAnLWltYWUnLCAnPGluZmlsZS5tYWU+JywgJy1vbWFlJywgJzxvdXRmaWxlLm1hZT4n

> <r_lp_tautomer_probability>
1

> <r_epik_Ionization_Penalty>
  0.1196

> <r_epik_Ionization_Penalty_Charging>
  0.1195

> <r_epik_Ionization_Penalty_Neutral>
  0.0001

> <r_epik_State_Penalty>
 -0.0000

> <r_epik_Charging_Adjusted_Penalty>
0.119517839695947

> <i_epik_Tot_Q>
1

> <i_epik_Tot_abs_Q>
1

> <s_lp_Force_Field>
OPLS3e

> <r_lp_Energy>
43.097096

> <b_lp_Chiralities_Consistent>
1

> <s_lp_Variant>
sdf/actives_sanitized.sdf:8-1

$$$$
sdf/actives_sanitized.sdf:9
                    3D
 Schrodinger Suite 2020-1.
 80 85  0  0  1  0            999 V2000
   -5.9166    8.2019   -0.8461 N   0  0  0  0  0  0
    3.9479   -4.3793   -6.4433 N   0  0  0  0  0  0
   -6.1225    8.6559   -2.2278 C   0  0  0  0  0  0
    4.8434   -6.2125   -8.4740 C   0  0  0  0  0  0
    4.0290   -7.3392   -8.3228 C   0  0  0  0  0  0
    3.2072   -7.7486   -9.3698 C   0  0  0  0  0  0
    3.2052   -7.0338  -10.5660 C   0  0  0  0  0  0
    4.8405   -5.5037   -9.6794 C   0  0  0  0  0  0
    5.1818   -4.7472   -6.3330 C   0  0  0  0  0  0
    2.2554   -0.1304   -1.8427 C   0  0  0  0  0  0
    3.8053   -1.9460   -2.2212 C   0  0  0  0  0  0
    1.9335   -0.1358   -3.2005 C   0  0  0  0  0  0
   -0.4970    1.7226   -0.4422 C   0  0  0  0  0  0
   -0.0619    3.0479   -0.6868 C   0  0  0  0  0  0
   -2.2425    3.9253   -0.0851 C   0  0  0  0  0  0
   -1.8402    1.5100   -0.0126 C   0  0  0  0  0  0
   -0.1822   -0.6825   -0.3392 C   0  0  0  0  0  0
   -5.4032    9.2791    0.0143 C   0  0  0  0  0  0
   -6.2521   10.5628   -0.1108 C   0  0  0  0  0  0
   -6.3517   10.9558   -1.4749 O   0  0  0  0  0  0
   -6.9575    9.9528   -2.2825 C   0  0  0  0  0  0
   -5.0732    7.0030   -0.8248 C   0  0  0  0  0  0
   -5.0399    6.3048    0.5521 C   0  0  0  0  0  0
   -4.3860    4.9154    0.5035 C   0  0  0  0  0  0
   -3.0351    5.0493    0.0682 O   0  0  0  0  0  0
   -2.6956    2.6207    0.1627 C   0  0  0  0  0  0
   -0.9264    4.1392   -0.5122 C   0  0  0  0  0  0
   -0.5505    5.4519   -0.7423 O   0  0  0  0  0  0
    0.7690    5.7384   -1.1937 C   0  0  0  0  0  0
   -2.3302    0.2642    0.2377 N   0  0  0  0  0  0
   -1.5050   -0.7962    0.0733 C   0  0  0  0  0  0
    0.3454    0.5860   -0.6125 C   0  0  0  0  0  0
    1.6587    0.7711   -0.9940 O   0  0  0  0  0  0
    3.1943   -1.0403   -1.3542 C   0  0  0  0  0  0
    3.5092   -1.0540   -0.0383 F   0  0  0  0  0  0
    2.5499   -1.0412   -4.0632 C   0  0  0  0  0  0
    3.5074   -1.9549   -3.5942 C   0  0  0  0  0  0
    4.1472   -2.9303   -4.5284 C   0  0  0  0  0  0
    5.5753   -3.2731   -4.4231 C   0  0  0  0  0  0
    6.3249   -2.7225   -3.6102 O   0  0  0  0  0  0
    5.9989   -4.2304   -5.3289 N   0  0  0  0  0  0
    7.4166   -4.6233   -5.1917 C   0  0  0  0  0  0
    3.4419   -3.4838   -5.5504 C   0  0  0  0  0  0
    5.7587   -5.7698   -7.3315 C   0  0  0  0  0  0
    4.0185   -5.9137  -10.7257 C   0  0  0  0  0  0
   -5.1569    8.8172   -2.7108 H   0  0  0  0  0  0
   -6.6173    7.8689   -2.7987 H   0  0  0  0  0  0
    4.0290   -7.8941   -7.3956 H   0  0  0  0  0  0
    2.5742   -8.6162   -9.2551 H   0  0  0  0  0  0
    2.5678   -7.3516  -11.3780 H   0  0  0  0  0  0
    5.4708   -4.6350   -9.8048 H   0  0  0  0  0  0
    4.5117   -2.6521   -1.8103 H   0  0  0  0  0  0
    1.2084    0.5657   -3.5864 H   0  0  0  0  0  0
    0.9561    3.1938   -1.0147 H   0  0  0  0  0  0
    0.4255   -1.5700   -0.4376 H   0  0  0  0  0  0
   -5.3840    8.9517    1.0538 H   0  0  0  0  0  0
   -4.3675    9.4967   -0.2532 H   0  0  0  0  0  0
   -7.2454   10.4183    0.3185 H   0  0  0  0  0  0
   -5.7864   11.3720    0.4517 H   0  0  0  0  0  0
   -7.0120   10.3170   -3.3086 H   0  0  0  0  0  0
   -7.9853    9.7711   -1.9618 H   0  0  0  0  0  0
   -4.0576    7.2641   -1.1290 H   0  0  0  0  0  0
   -5.4197    6.2841   -1.5697 H   0  0  0  0  0  0
   -6.0403    6.2477    0.9833 H   0  0  0  0  0  0
   -4.4416    6.9020    1.2412 H   0  0  0  0  0  0
   -4.9486    4.2681   -0.1717 H   0  0  0  0  0  0
   -4.4142    4.4651    1.4974 H   0  0  0  0  0  0
   -3.7067    2.4325    0.4923 H   0  0  0  0  0  0
    0.8799    6.8156   -1.3176 H   0  0  0  0  0  0
    0.9701    5.2732   -2.1600 H   0  0  0  0  0  0
    1.5202    5.4105   -0.4737 H   0  0  0  0  0  0
   -1.9273   -1.7668    0.2883 H   0  0  0  0  0  0
    2.2862   -1.0132   -5.1102 H   0  0  0  0  0  0
    8.0652   -3.8330   -5.5725 H   0  0  0  0  0  0
    7.6689   -5.5406   -5.7214 H   0  0  0  0  0  0
    7.6805   -4.7993   -4.1470 H   0  0  0  0  0  0
    2.3957   -3.2472   -5.6810 H   0  0  0  0  0  0
    6.0764   -6.6611   -6.7883 H   0  0  0  0  0  0
    6.6706   -5.3664   -7.7745 H   0  0  0  0  0  0
    4.0119   -5.3661  -11.6567 H   0  0  0  0  0  0
  1 22  1  0  0  0
  1 18  1  0  0  0
  1  3  1  0  0  0
  2  9  2  0  0  0
  2 43  1  0  0  0
  3 21  1  0  0  0
  3 46  1  0  0  0
  3 47  1  0  0  0
  4  8  2  0  0  0
  4  5  1  0  0  0
  4 44  1  0  0  0
  5  6  2  0  0  0
  5 48  1  0  0  0
  6  7  1  0  0  0
  6 49  1  0  0  0
  7 45  2  0  0  0
  7 50  1  0  0  0
  8 45  1  0  0  0
  8 51  1  0  0  0
  9 44  1  0  0  0
  9 41  1  0  0  0
 10 34  2  0  0  0
 10 12  1  0  0  0
 10 33  1  0  0  0
 11 37  2  0  0  0
 11 34  1  0  0  0
 11 52  1  0  0  0
 12 36  2  0  0  0
 12 53  1  0  0  0
 13 32  1  0  0  0
 13 14  2  0  0  0
 13 16  1  0  0  0
 14 27  1  0  0  0
 14 54  1  0  0  0
 15 27  2  0  0  0
 15 26  1  0  0  0
 15 25  1  0  0  0
 16 30  1  0  0  0
 16 26  2  0  0  0
 17 32  2  0  0  0
 17 31  1  0  0  0
 17 55  1  0  0  0
 18 19  1  0  0  0
 18 56  1  0  0  0
 18 57  1  0  0  0
 19 20  1  0  0  0
 19 58  1  0  0  0
 19 59  1  0  0  0
 20 21  1  0  0  0
 21 60  1  0  0  0
 21 61  1  0  0  0
 22 23  1  0  0  0
 22 62  1  0  0  0
 22 63  1  0  0  0
 23 24  1  0  0  0
 23 64  1  0  0  0
 23 65  1  0  0  0
 24 25  1  0  0  0
 24 66  1  0  0  0
 24 67  1  0  0  0
 26 68  1  0  0  0
 27 28  1  0  0  0
 28 29  1  0  0  0
 29 69  1  0  0  0
 29 70  1  0  0  0
 29 71  1  0  0  0
 30 31  2  0  0  0
 31 72  1  0  0  0
 32 33  1  0  0  0
 34 35  1  0  0  0
 36 37  1  0  0  0
 36 73  1  0  0  0
 37 38  1  0  0  0
 38 39  1  0  0  0
 38 43  2  0  0  0
 39 41  1  0  0  0
 39 40  2  0  0  0
 41 42  1  0  0  0
 42 74  1  0  0  0
 42 75  1  0  0  0
 42 76  1  0  0  0
 43 77  1  0  0  0
 44 78  1  0  0  0
 44 79  1  0  0  0
 45 80  1  0  0  0
M  END
> <chembl_id>
CHEMBL505896

> <chembl_pref_name>
None

> <s_m_source_file>
sdf/actives_sanitized.sdf

> <i_m_source_file_index>
9

> <i_lp_mmshare_version>
49012

> <i_m_ct_stereo_status>
1

> <i_f3d_flags>
0

> <s_epik_input>
W0NIMl0xW0NIMl1PW0NIMl1bQ0gyXU4xW0NIMl1bQ0gyXVtDSDJdT2MoYyhbY0hdMilPW0NIM10pW2NIXWMoYzIzKW5bY0hdW2NIXWMzT2M0W2NIXVtjSF1jKFtjSF1jNEYpLWMoYyg9TyluNVtDSDNdKVtjSF1uYzVbQ0gyXWM2W2NIXVtjSF1bY0hdW2NIXVtjSF02

> <s_epik_cmdline>
J2VwaWtfcHl0aG9uJywgJy1waHQnLCAnMC41JywgJy1waCcsICc3LjUnLCAnLW50JywgJy1tYScsICcyMDAnLCAnLWltYWUnLCAnPGluZmlsZS5tYWU+JywgJy1vbWFlJywgJzxvdXRmaWxlLm1hZT4n

> <r_lp_tautomer_probability>
1

> <r_epik_Ionization_Penalty>
  0.2162

> <r_epik_Ionization_Penalty_Charging>
  0.0000

> <r_epik_Ionization_Penalty_Neutral>
  0.2162

> <r_epik_State_Penalty>
  0.2008

> <r_epik_Charging_Adjusted_Penalty>
0.200779966798073

> <i_epik_Tot_Q>
0

> <i_epik_Tot_abs_Q>
0

> <s_lp_Force_Field>
OPLS3e

> <r_lp_Energy>
80.760858

> <b_lp_Chiralities_Consistent>
1

> <s_lp_Variant>
sdf/actives_sanitized.sdf:9-1

$$$$
sdf/actives_sanitized.sdf:10
                    3D
 Schrodinger Suite 2020-1.
 66 70  0  0  1  0            999 V2000
  -16.7287    3.4368   -2.8116 C   0  0  0  0  0  0
  -15.6611    2.5621   -3.1605 O   0  0  0  0  0  0
  -14.4119    2.7685   -2.6073 C   0  0  0  0  0  0
  -13.4117    1.8698   -2.9778 C   0  0  0  0  0  0
  -12.1207    1.9940   -2.4722 C   0  0  0  0  0  0
  -11.8123    3.0382   -1.5875 C   0  0  0  0  0  0
  -10.5433    3.2374   -1.0108 N   0  0  0  0  0  0
   -9.3431    2.7859   -1.4301 C   0  0  0  0  0  0
   -9.1520    2.1430   -2.4633 O   0  0  0  0  0  0
   -8.3807    3.1578   -0.5608 N   0  0  0  0  0  0
   -7.0056    2.8548   -0.5808 C   0  0  0  0  0  0
   -6.1825    3.6725    0.1971 C   0  0  0  0  0  0
   -4.8104    3.4414    0.2490 C   0  0  0  0  0  0
   -4.2527    2.3800   -0.4662 C   0  0  0  0  0  0
   -5.0715    1.5569   -1.2417 C   0  0  0  0  0  0
   -6.4434    1.7854   -1.2958 C   0  0  0  0  0  0
   -2.7831    2.1418   -0.4187 C   0  0  0  0  0  0
   -1.8787    3.0804   -0.8723 C   0  0  0  0  0  0
   -0.2126    2.5996   -0.7934 S   0  0  0  0  0  0
   -0.6774    1.0611   -0.0762 C   0  0  0  0  0  0
    0.1761    0.0071    0.3219 C   0  0  0  0  0  0
   -0.4471   -1.1192    0.8574 C   0  0  0  0  0  0
   -1.7799   -1.2433    1.0298 N   0  0  0  0  0  0
   -2.5931   -0.2299    0.6545 C   0  0  0  0  0  0
   -3.9502   -0.4373    0.9029 N   0  0  0  0  0  0
   -2.1049    0.9652    0.0680 C   0  0  0  0  0  0
    1.6639    0.0339    0.2021 C   0  0  0  0  0  0
    2.5297   -1.0417   -0.0634 C   0  0  0  0  0  0
    3.7967   -0.6990   -0.1117 N   0  0  0  0  0  0
    3.7977    0.6148    0.1434 N   0  0  0  0  0  0
    5.0539    1.3619    0.1406 C   0  0  0  0  0  0
    5.5011    1.8182   -1.2777 C   0  0  0  0  0  0
    5.8741    0.6405   -2.2032 C   0  0  0  0  0  0
    4.4748    2.7545   -1.9516 C   0  0  0  0  0  0
    6.6824    2.5762   -1.0964 O   0  0  0  0  0  0
    2.5332    1.1073    0.3346 C   0  0  0  0  0  0
  -12.8133    3.9324   -1.2042 C   0  0  0  0  0  0
  -14.1034    3.8040   -1.7117 C   0  0  0  0  0  0
  -17.6345    3.1246   -3.3313 H   0  0  0  0  0  0
  -16.5168    4.4654   -3.1074 H   0  0  0  0  0  0
  -16.9363    3.4068   -1.7409 H   0  0  0  0  0  0
  -13.6388    1.0636   -3.6600 H   0  0  0  0  0  0
  -11.3865    1.2619   -2.7698 H   0  0  0  0  0  0
  -10.5386    3.8525   -0.2106 H   0  0  0  0  0  0
   -8.6623    3.7777    0.1842 H   0  0  0  0  0  0
   -6.5987    4.4953    0.7610 H   0  0  0  0  0  0
   -4.1836    4.0848    0.8497 H   0  0  0  0  0  0
   -4.6472    0.7340   -1.7987 H   0  0  0  0  0  0
   -7.0451    1.1121   -1.8857 H   0  0  0  0  0  0
   -2.1180    4.0498   -1.2851 H   0  0  0  0  0  0
    0.1373   -1.9661    1.1867 H   0  0  0  0  0  0
   -4.6184    0.2777    0.6516 H   0  0  0  0  0  0
   -4.2477   -1.3018    1.3321 H   0  0  0  0  0  0
    2.2269   -2.0652   -0.2300 H   0  0  0  0  0  0
    4.9301    2.2238    0.7995 H   0  0  0  0  0  0
    5.8228    0.7453    0.6116 H   0  0  0  0  0  0
    5.0000    0.0442   -2.4656 H   0  0  0  0  0  0
    6.5982   -0.0263   -1.7325 H   0  0  0  0  0  0
    6.3128    0.9879   -3.1399 H   0  0  0  0  0  0
    3.5465    2.2301   -2.1806 H   0  0  0  0  0  0
    4.8544    3.1585   -2.8914 H   0  0  0  0  0  0
    4.2231    3.6011   -1.3111 H   0  0  0  0  0  0
    6.9915    2.8677   -1.9573 H   0  0  0  0  0  0
    2.3720    2.1547    0.5423 H   0  0  0  0  0  0
  -12.5977    4.7359   -0.5143 H   0  0  0  0  0  0
  -14.8507    4.5164   -1.3974 H   0  0  0  0  0  0
  1  2  1  0  0  0
  1 39  1  0  0  0
  1 40  1  0  0  0
  1 41  1  0  0  0
  2  3  1  0  0  0
  3  4  2  0  0  0
  3 38  1  0  0  0
  4  5  1  0  0  0
  4 42  1  0  0  0
  5  6  2  0  0  0
  5 43  1  0  0  0
  6  7  1  0  0  0
  6 37  1  0  0  0
  7  8  1  0  0  0
  7 44  1  0  0  0
  8  9  2  0  0  0
  8 10  1  0  0  0
 10 11  1  0  0  0
 10 45  1  0  0  0
 11 12  2  0  0  0
 11 16  1  0  0  0
 12 13  1  0  0  0
 12 46  1  0  0  0
 13 14  2  0  0  0
 13 47  1  0  0  0
 14 15  1  0  0  0
 14 17  1  0  0  0
 15 16  2  0  0  0
 15 48  1  0  0  0
 16 49  1  0  0  0
 17 18  2  0  0  0
 17 26  1  0  0  0
 18 19  1  0  0  0
 18 50  1  0  0  0
 19 20  1  0  0  0
 20 21  2  0  0  0
 20 26  1  0  0  0
 21 22  1  0  0  0
 21 27  1  0  0  0
 22 23  2  0  0  0
 22 51  1  0  0  0
 23 24  1  0  0  0
 24 25  1  0  0  0
 24 26  2  0  0  0
 25 52  1  0  0  0
 25 53  1  0  0  0
 27 28  1  0  0  0
 27 36  2  0  0  0
 28 29  2  0  0  0
 28 54  1  0  0  0
 29 30  1  0  0  0
 30 31  1  0  0  0
 30 36  1  0  0  0
 31 32  1  0  0  0
 31 55  1  0  0  0
 31 56  1  0  0  0
 32 33  1  0  0  0
 32 34  1  0  0  0
 32 35  1  0  0  0
 33 57  1  0  0  0
 33 58  1  0  0  0
 33 59  1  0  0  0
 34 60  1  0  0  0
 34 61  1  0  0  0
 34 62  1  0  0  0
 35 63  1  0  0  0
 36 64  1  0  0  0
 37 38  2  0  0  0
 37 65  1  0  0  0
 38 66  1  0  0  0
M  END
> <chembl_id>
CHEMBL2004290

> <chembl_pref_name>
None

> <s_m_source_file>
sdf/actives_sanitized.sdf

> <i_m_source_file_index>
10

> <i_lp_mmshare_version>
49012

> <i_m_ct_stereo_status>
1

> <i_f3d_flags>
0

> <s_epik_input>
W0NIM11PYzFbY0hdW2NIXWMoW2NIXVtjSF0xKVtOSF1DKD1PKVtOSF1jMltjSF1bY0hdYyhbY0hdW2NIXTIpLWMoW2NIXXMzKWMoYzM0KWMoW05IMl0pbltjSF1jNC1jNVtjSF1ubihbY0hdNSlbQ0gyXUMoW0NIM10pKFtDSDNdKVtPSF0=

> <s_epik_cmdline>
J2VwaWtfcHl0aG9uJywgJy1waHQnLCAnMC41JywgJy1waCcsICc3LjUnLCAnLW50JywgJy1tYScsICcyMDAnLCAnLWltYWUnLCAnPGluZmlsZS5tYWU+JywgJy1vbWFlJywgJzxvdXRmaWxlLm1hZT4n

> <r_lp_tautomer_probability>
1

> <r_epik_Ionization_Penalty>
  0.1181

> <r_epik_Ionization_Penalty_Charging>
  0.0000

> <r_epik_Ionization_Penalty_Neutral>
  0.1181

> <r_epik_State_Penalty>
  0.1069

> <r_epik_Charging_Adjusted_Penalty>
0.106864179686304

> <i_epik_Tot_Q>
0

> <i_epik_Tot_abs_Q>
0

> <s_lp_Force_Field>
OPLS3e

> <r_lp_Energy>
52.926041

> <b_lp_Chiralities_Consistent>
1

> <s_lp_Variant>
sdf/actives_sanitized.sdf:10-1

$$$$
sdf/actives_sanitized.sdf:11
                    3D
 Schrodinger Suite 2020-1.
 47 50  0  0  1  0            999 V2000
    7.5066   -1.7100   -0.0195 O   0  0  0  0  0  0
   -1.8131    1.7336    1.0290 N   0  0  0  0  0  0
   -0.1008    3.0660   -0.0610 N   0  0  0  0  0  0
   -2.9853    5.1680    0.1480 N   0  0  0  0  0  0
   -3.9810    2.4532    1.4896 N   0  0  0  0  0  0
   -0.8794    5.3095   -0.6360 N   0  0  0  0  0  0
    0.2767    0.8097    0.6364 N   0  0  0  0  0  0
    5.7424   -0.2725   -0.2280 N   0  0  0  0  0  0
   -2.3372    3.9749    0.3614 C   0  0  0  0  0  0
   -2.7179    2.7455    0.9492 C   0  0  0  0  0  0
   -1.0063    4.0438   -0.1185 C   0  0  0  0  0  0
   -0.5617    1.9304    0.5350 C   0  0  0  0  0  0
   -5.0455    3.4397    1.6067 C   0  0  0  0  0  0
    1.6496    0.5931    0.4169 C   0  0  0  0  0  0
   -2.0940    5.9242   -0.4445 C   0  0  0  0  0  0
    4.3673   -0.0019    0.0103 C   0  0  0  0  0  0
   -6.4597    2.9523    1.3955 C   0  0  0  0  0  0
   -5.7968    3.8129    0.3465 C   0  0  0  0  0  0
    2.5828    1.6234    0.2488 C   0  0  0  0  0  0
    2.0855   -0.7325    0.3881 C   0  0  0  0  0  0
    3.9267    1.3272    0.0400 C   0  0  0  0  0  0
    3.4282   -1.0316    0.1771 C   0  0  0  0  0  0
    6.4390   -1.2640    0.4061 C   0  0  0  0  0  0
    6.3829    0.4371   -1.3558 C   0  0  0  0  0  0
    5.9577   -1.7973    1.7627 C   0  0  0  0  0  0
    7.4365    1.4727   -0.9249 C   0  0  0  0  0  0
   -4.0762    1.5895    2.0040 H   0  0  0  0  0  0
   -0.0825    5.7478   -1.0745 H   0  0  0  0  0  0
   -0.2187   -0.0199    0.9284 H   0  0  0  0  0  0
   -4.8677    4.2126    2.3555 H   0  0  0  0  0  0
   -2.2368    6.9430   -0.7746 H   0  0  0  0  0  0
   -6.6294    1.8958    1.1840 H   0  0  0  0  0  0
   -7.2487    3.3819    2.0131 H   0  0  0  0  0  0
   -6.1147    4.8488    0.2277 H   0  0  0  0  0  0
   -5.4969    3.3614   -0.6000 H   0  0  0  0  0  0
    2.2993    2.6622    0.2904 H   0  0  0  0  0  0
    1.3822   -1.5435    0.5154 H   0  0  0  0  0  0
    4.6231    2.1432   -0.0844 H   0  0  0  0  0  0
    3.7264   -2.0685    0.1289 H   0  0  0  0  0  0
    6.8320   -0.2883   -2.0363 H   0  0  0  0  0  0
    5.6245    0.9349   -1.9617 H   0  0  0  0  0  0
    5.3207   -1.0830    2.2847 H   0  0  0  0  0  0
    6.8133   -1.9986    2.4081 H   0  0  0  0  0  0
    5.4101   -2.7308    1.6342 H   0  0  0  0  0  0
    7.8550    1.9750   -1.7970 H   0  0  0  0  0  0
    8.2659    1.0051   -0.3938 H   0  0  0  0  0  0
    7.0059    2.2403   -0.2817 H   0  0  0  0  0  0
  1 23  2  0  0  0
  2 10  2  0  0  0
  2 12  1  0  0  0
  3 11  1  0  0  0
  3 12  2  0  0  0
  4  9  1  0  0  0
  4 15  2  0  0  0
  5 10  1  0  0  0
  5 13  1  0  0  0
  5 27  1  0  0  0
  6 11  1  0  0  0
  6 15  1  0  0  0
  6 28  1  0  0  0
  7 12  1  0  0  0
  7 14  1  0  0  0
  7 29  1  0  0  0
  8 16  1  0  0  0
  8 23  1  0  0  0
  8 24  1  0  0  0
  9 10  1  0  0  0
  9 11  2  0  0  0
 13 17  1  0  0  0
 13 18  1  0  0  0
 13 30  1  0  0  0
 14 19  2  0  0  0
 14 20  1  0  0  0
 15 31  1  0  0  0
 16 21  2  0  0  0
 16 22  1  0  0  0
 17 18  1  0  0  0
 17 32  1  0  0  0
 17 33  1  0  0  0
 18 34  1  0  0  0
 18 35  1  0  0  0
 19 21  1  0  0  0
 19 36  1  0  0  0
 20 22  2  0  0  0
 20 37  1  0  0  0
 21 38  1  0  0  0
 22 39  1  0  0  0
 23 25  1  0  0  0
 24 26  1  0  0  0
 24 40  1  0  0  0
 24 41  1  0  0  0
 25 42  1  0  0  0
 25 43  1  0  0  0
 25 44  1  0  0  0
 26 45  1  0  0  0
 26 46  1  0  0  0
 26 47  1  0  0  0
M  END
> <chembl_id>
CHEMBL2006564

> <chembl_pref_name>
None

> <s_m_source_file>
sdf/actives_sanitized.sdf

> <i_m_source_file_index>
11

> <i_lp_mmshare_version>
49012

> <i_m_ct_stereo_status>
1

> <i_f3d_flags>
0

> <s_epik_input>
Tz1DKFtDSDNdKU4oW0NIMl1bQ0gzXSljKFtjSF1bY0hdMSlbY0hdW2NIXWMxW05IXWMobmMoYzIzKVtuSF1bY0hdbjIpbmMzW05IXVtDSF00W0NIMl1bQ0gyXTQ=

> <s_epik_cmdline>
J2VwaWtfcHl0aG9uJywgJy1waHQnLCAnMC41JywgJy1waCcsICc3LjUnLCAnLW50JywgJy1tYScsICcyMDAnLCAnLWltYWUnLCAnPGluZmlsZS5tYWU+JywgJy1vbWFlJywgJzxvdXRmaWxlLm1hZT4n

> <r_lp_tautomer_probability>
1

> <r_epik_Ionization_Penalty>
  0.0011

> <r_epik_Ionization_Penalty_Charging>
  0.0000

> <r_epik_Ionization_Penalty_Neutral>
  0.0011

> <r_epik_State_Penalty>
 -0.0000

> <r_epik_Charging_Adjusted_Penalty>
0

> <i_epik_Tot_Q>
0

> <i_epik_Tot_abs_Q>
0

> <s_lp_Force_Field>
OPLS3e

> <r_lp_Energy>
30.752865

> <b_lp_Chiralities_Consistent>
1

> <s_lp_Variant>
sdf/actives_sanitized.sdf:11-1

$$$$
sdf/actives_sanitized.sdf:12
                    3D
 Schrodinger Suite 2020-1.
 32 33  0  0  1  0            999 V2000
    2.8550   -1.1364   -2.1560 O   0  5  0  0  0  0
    3.4105    4.2034   -4.6791 O   0  0  0  0  0  0
    3.0575    2.2090   -3.4993 N   0  0  0  0  0  0
    3.8857    0.1849   -4.3583 N   0  0  0  0  0  0
   -0.0982   -0.1939   -0.0870 N   0  3  0  0  0  0
    3.2379    0.8076   -3.4167 C   0  0  0  0  0  0
    2.6591    0.1381   -2.2291 C   0  0  0  0  0  0
    1.9572    0.8002   -1.2617 C   0  0  0  0  0  0
    3.5369    2.9838   -4.5435 C   0  0  0  0  0  0
    2.3594    2.8520   -2.4844 C   0  0  0  0  0  0
    4.3922    0.8753   -5.4208 C   0  0  0  0  0  0
    1.8181    2.2453   -1.4102 C   0  0  0  0  0  0
    4.2489    2.2142   -5.5480 C   0  0  0  0  0  0
    1.4108    0.1242   -0.0041 C   0  0  0  0  0  0
    5.1165   -0.0069   -6.4197 C   0  0  0  0  0  0
   -0.4269   -1.2491   -1.1618 C   0  0  0  0  0  0
   -0.6705   -0.6003    1.2842 C   0  0  0  0  0  0
    2.2571    3.9246   -2.5932 H   0  0  0  0  0  0
    1.2883    2.8266   -0.6694 H   0  0  0  0  0  0
    4.6625    2.7316   -6.4012 H   0  0  0  0  0  0
    1.4959    0.8289    0.8248 H   0  0  0  0  0  0
    1.9172   -0.8047    0.2643 H   0  0  0  0  0  0
    5.4995    0.5767   -7.2577 H   0  0  0  0  0  0
    4.4442   -0.7666   -6.8204 H   0  0  0  0  0  0
    5.9616   -0.5081   -5.9467 H   0  0  0  0  0  0
    0.1080   -2.1643   -0.9033 H   0  0  0  0  0  0
   -0.1020   -0.8515   -2.1235 H   0  0  0  0  0  0
   -1.5073   -1.3966   -1.1537 H   0  0  0  0  0  0
   -0.1736   -1.5218    1.5913 H   0  0  0  0  0  0
   -1.7445   -0.7435    1.1576 H   0  0  0  0  0  0
   -0.4678    0.2178    1.9764 H   0  0  0  0  0  0
   -0.5604    0.6594   -0.3684 H   0  0  0  0  0  0
  1  7  1  0  0  0
  2  9  2  0  0  0
  3  6  1  0  0  0
  3  9  1  0  0  0
  3 10  1  0  0  0
  4  6  2  0  0  0
  4 11  1  0  0  0
  5 14  1  0  0  0
  5 16  1  0  0  0
  5 17  1  0  0  0
  5 32  1  0  0  0
  6  7  1  0  0  0
  7  8  2  0  0  0
  8 12  1  0  0  0
  8 14  1  0  0  0
  9 13  1  0  0  0
 10 12  2  0  0  0
 10 18  1  0  0  0
 11 13  2  0  0  0
 11 15  1  0  0  0
 12 19  1  0  0  0
 13 20  1  0  0  0
 14 21  1  0  0  0
 14 22  1  0  0  0
 15 23  1  0  0  0
 15 24  1  0  0  0
 15 25  1  0  0  0
 16 26  1  0  0  0
 16 27  1  0  0  0
 16 28  1  0  0  0
 17 29  1  0  0  0
 17 30  1  0  0  0
 17 31  1  0  0  0
M  CHG  2   1  -1   5   1
M  END
> <chembl_id>
CHEMBL1988581

> <chembl_pref_name>
None

> <s_m_source_file>
sdf/actives_sanitized.sdf

> <i_m_source_file_index>
12

> <i_lp_mmshare_version>
49012

> <i_m_ct_stereo_status>
1

> <i_f3d_flags>
0

> <s_epik_input>
W0NIM11OKFtDSDNdKVtDSDJdYyhbY0hdW2NIXTEpYyhbT0hdKWMobjEyKW5jKFtDSDNdKVtjSF1jMj1P

> <s_epik_cmdline>
J2VwaWtfcHl0aG9uJywgJy1waHQnLCAnMC41JywgJy1waCcsICc3LjUnLCAnLW50JywgJy1tYScsICcyMDAnLCAnLWltYWUnLCAnPGluZmlsZS5tYWU+JywgJy1vbWFlJywgJzxvdXRmaWxlLm1hZT4n

> <r_epik_Ionization_Penalty>
  0.2017

> <r_epik_Ionization_Penalty_Charging>
  0.2016

> <r_epik_Ionization_Penalty_Neutral>
  0.0000

> <r_epik_State_Penalty>
  0.3067

> <r_epik_Charging_Adjusted_Penalty>
0.508296946148717

> <i_epik_Tot_Q>
0

> <i_epik_Tot_abs_Q>
2

> <s_lp_Force_Field>
OPLS3e

> <r_lp_Energy>
41.728483

> <b_lp_Chiralities_Consistent>
1

> <s_lp_Variant>
sdf/actives_sanitized.sdf:12-1

$$$$
sdf/actives_sanitized.sdf:13
                    3D
 Schrodinger Suite 2020-1.
 66 70  0  0  1  0            999 V2000
    3.7877    4.2517    2.6744 O   0  0  0  0  0  0
    6.4194    4.9581    1.8901 O   0  0  0  0  0  0
   -0.3070    2.1765    0.2552 O   0  0  0  0  0  0
    4.0093    2.4446    1.3283 N   0  0  0  0  0  0
    3.5958   -0.4594   -0.8581 N   0  0  0  0  0  0
    2.3068   -0.7702   -1.0626 N   0  0  0  0  0  0
    0.2275    0.0561   -0.4061 N   0  0  0  0  0  0
   -6.2378   -0.2555   -0.3851 N   0  0  0  0  0  0
   -7.7876   -1.3304   -2.6754 N   0  3  0  0  0  0
    2.4777    1.0353    0.2614 C   0  0  0  0  0  0
    3.7334    0.6312   -0.0516 C   0  0  0  0  0  0
    1.6104    0.1382   -0.4017 C   0  0  0  0  0  0
    2.5574    2.2346    1.1684 C   0  0  0  0  0  0
    4.8058    1.4679    0.5689 C   0  0  0  0  0  0
    4.5158    3.4445    2.0912 C   0  0  0  0  0  0
    6.0552    3.6125    2.2233 C   0  0  2  0  0  0
   -0.6418    1.0349   -0.0673 C   0  0  0  0  0  0
    6.5067    3.2734    3.6528 C   0  0  0  0  0  0
   -2.1112    0.6717   -0.1550 C   0  0  0  0  0  0
   -4.8702    0.0414   -0.3296 C   0  0  0  0  0  0
   -3.0782    1.6833   -0.1754 C   0  0  0  0  0  0
   -2.5408   -0.6621   -0.2013 C   0  0  0  0  0  0
   -4.4324    1.3721   -0.2573 C   0  0  0  0  0  0
   -3.8965   -0.9688   -0.2793 C   0  0  0  0  0  0
    6.4351    1.9474    4.0999 C   0  0  0  0  0  0
    6.9863    4.2640    4.5218 C   0  0  0  0  0  0
   -7.1728    0.5778   -1.1701 C   0  0  0  0  0  0
   -6.7632   -1.6354   -0.4145 C   0  0  0  0  0  0
    6.8354    1.6159    5.3914 C   0  0  0  0  0  0
    7.3874    3.9322    5.8132 C   0  0  0  0  0  0
    6.3984    5.2835    0.5032 C   0  0  0  0  0  0
    7.3105    2.6100    6.2425 C   0  0  0  0  0  0
   -7.2722    0.1227   -2.6445 C   0  0  0  0  0  0
   -6.8366   -2.2151   -1.8449 C   0  0  0  0  0  0
   -7.8863   -1.8455   -4.1241 C   0  0  0  0  0  0
    4.3547   -0.9944   -1.2555 H   0  0  0  0  0  0
   -0.1573   -0.7784   -0.8234 H   0  0  0  0  0  0
    2.0877    2.0560    2.1366 H   0  0  0  0  0  0
    2.0975    3.1210    0.7296 H   0  0  0  0  0  0
    5.4246    1.9700   -0.1756 H   0  0  0  0  0  0
    5.4542    0.8921    1.2298 H   0  0  0  0  0  0
    6.6151    2.9433    1.5691 H   0  0  0  0  0  0
   -2.7920    2.7245   -0.1255 H   0  0  0  0  0  0
   -1.8353   -1.4801   -0.1704 H   0  0  0  0  0  0
   -5.1315    2.1937   -0.2446 H   0  0  0  0  0  0
   -4.1651   -2.0131   -0.3159 H   0  0  0  0  0  0
    6.0670    1.1699    3.4471 H   0  0  0  0  0  0
    7.0487    5.2959    4.2095 H   0  0  0  0  0  0
   -8.1603    0.5308   -0.7071 H   0  0  0  0  0  0
   -6.9060    1.6321   -1.1383 H   0  0  0  0  0  0
   -6.1850   -2.2875    0.2398 H   0  0  0  0  0  0
   -7.7627   -1.6364    0.0247 H   0  0  0  0  0  0
    6.7768    0.5926    5.7320 H   0  0  0  0  0  0
    7.7553    4.6982    6.4798 H   0  0  0  0  0  0
    6.7308    6.3126    0.3685 H   0  0  0  0  0  0
    5.3968    5.2015    0.0794 H   0  0  0  0  0  0
    7.0709    4.6391   -0.0646 H   0  0  0  0  0  0
    7.6210    2.3537    7.2446 H   0  0  0  0  0  0
   -6.3096    0.1478   -3.1594 H   0  0  0  0  0  0
   -7.9973    0.7178   -3.2015 H   0  0  0  0  0  0
   -7.2641   -3.2187   -1.8523 H   0  0  0  0  0  0
   -5.8673   -2.2281   -2.3476 H   0  0  0  0  0  0
   -6.8888   -1.8176   -4.5656 H   0  0  0  0  0  0
   -8.5786   -1.1884   -4.6516 H   0  0  0  0  0  0
   -8.2765   -2.8630   -4.0757 H   0  0  0  0  0  0
   -8.7025   -1.3537   -2.2465 H   0  0  0  0  0  0
  1 15  2  0  0  0
  2 16  1  0  0  0
  2 31  1  0  0  0
  3 17  2  0  0  0
  4 13  1  0  0  0
  4 14  1  0  0  0
  4 15  1  0  0  0
  5  6  1  0  0  0
  5 11  1  0  0  0
  5 36  1  0  0  0
  6 12  2  0  0  0
  7 12  1  0  0  0
  7 17  1  0  0  0
  7 37  1  0  0  0
  8 20  1  0  0  0
  8 27  1  0  0  0
  8 28  1  0  0  0
  9 33  1  0  0  0
  9 34  1  0  0  0
  9 35  1  0  0  0
  9 66  1  0  0  0
 10 11  2  0  0  0
 10 12  1  0  0  0
 10 13  1  0  0  0
 11 14  1  0  0  0
 13 38  1  0  0  0
 13 39  1  0  0  0
 14 40  1  0  0  0
 14 41  1  0  0  0
 15 16  1  0  0  0
 16 18  1  0  0  0
 16 42  1  0  0  0
 17 19  1  0  0  0
 18 25  2  0  0  0
 18 26  1  0  0  0
 19 21  2  0  0  0
 19 22  1  0  0  0
 20 23  2  0  0  0
 20 24  1  0  0  0
 21 23  1  0  0  0
 21 43  1  0  0  0
 22 24  2  0  0  0
 22 44  1  0  0  0
 23 45  1  0  0  0
 24 46  1  0  0  0
 25 29  1  0  0  0
 25 47  1  0  0  0
 26 30  2  0  0  0
 26 48  1  0  0  0
 27 33  1  0  0  0
 27 49  1  0  0  0
 27 50  1  0  0  0
 28 34  1  0  0  0
 28 51  1  0  0  0
 28 52  1  0  0  0
 29 32  2  0  0  0
 29 53  1  0  0  0
 30 32  1  0  0  0
 30 54  1  0  0  0
 31 55  1  0  0  0
 31 56  1  0  0  0
 31 57  1  0  0  0
 32 58  1  0  0  0
 33 59  1  0  0  0
 33 60  1  0  0  0
 34 61  1  0  0  0
 34 62  1  0  0  0
 35 63  1  0  0  0
 35 64  1  0  0  0
 35 65  1  0  0  0
M  CHG  1   9   1
M  END
> <chembl_id>
CHEMBL1981047

> <chembl_pref_name>
None

> <s_m_source_file>
sdf/actives_sanitized.sdf

> <i_m_source_file_index>
13

> <i_lp_mmshare_version>
49012

> <i_m_ct_stereo_status>
1

> <i_f3d_flags>
0

> <s_epik_input>
W2NIXTFbY0hdW2NIXVtjSF1bY0hdYzFbQ0BIXShPW0NIM10pQyg9TylOKFtDSDJdMilbQ0gyXWMoYzIzKVtuSF1uYzNbTkhdQyg9TyljNFtjSF1bY0hdYyhbY0hdW2NIXTQpTjVbQ0gyXVtDSDJdTihbQ0gzXSlbQ0gyXVtDSDJdNQ==

> <s_epik_cmdline>
J2VwaWtfcHl0aG9uJywgJy1waHQnLCAnMC41JywgJy1waCcsICc3LjUnLCAnLW50JywgJy1tYScsICcyMDAnLCAnLWltYWUnLCAnPGluZmlsZS5tYWU+JywgJy1vbWFlJywgJzxvdXRmaWxlLm1hZT4n

> <r_lp_tautomer_probability>
0.5

> <r_epik_Ionization_Penalty>
  0.1844

> <r_epik_Ionization_Penalty_Charging>
  0.1844

> <r_epik_Ionization_Penalty_Neutral>
  0.0000

> <r_epik_State_Penalty>
  0.1740

> <r_epik_Charging_Adjusted_Penalty>
0.358412825985856

> <i_epik_Tot_Q>
1

> <i_epik_Tot_abs_Q>
1

> <s_lp_Force_Field>
OPLS3e

> <r_lp_Energy>
75.079397

> <b_lp_Chiralities_Consistent>
1

> <s_lp_Variant>
sdf/actives_sanitized.sdf:13-1

$$$$
sdf/actives_sanitized.sdf:14
                    3D
 Schrodinger Suite 2020-1.
 48 50  0  0  1  0            999 V2000
   -0.3558    7.7481    2.1212 F   0  0  0  0  0  0
    0.7637    8.1334    0.3258 F   0  0  0  0  0  0
    1.5977    6.8833    1.8643 F   0  0  0  0  0  0
    6.3255   -1.1599   -0.9987 O   0  0  0  0  0  0
   -2.0452    1.3506   -0.5188 N   0  0  0  0  0  0
   -0.2666    2.6967    0.4359 N   0  0  0  0  0  0
   -4.2603    2.3255   -0.2733 N   0  0  0  0  0  0
    0.1534    0.6043   -0.6354 N   0  0  0  0  0  0
    6.6034    0.9351   -0.1782 N   0  0  0  0  0  0
   -2.5269    3.4904    0.5792 C   0  0  0  0  0  0
   -2.8922    2.3022   -0.1108 C   0  0  0  0  0  0
   -1.1544    3.6431    0.8412 C   0  0  0  0  0  0
   -0.7409    1.6057   -0.2252 C   0  0  0  0  0  0
   -3.7335    4.2274    0.8181 C   0  0  0  0  0  0
   -0.5448    4.8460    1.5428 C   0  0  0  0  0  0
   -4.7657    3.4780    0.2821 C   0  0  0  0  0  0
    1.5567    0.4983   -0.6250 C   0  0  0  0  0  0
   -0.1638    5.9686    0.5572 C   0  0  0  0  0  0
    4.3475    0.1340   -0.6273 C   0  0  0  0  0  0
    2.1029   -0.7787   -0.7582 C   0  0  0  0  0  0
    2.4140    1.5996   -0.5181 C   0  0  0  0  0  0
    0.4692    7.1994    1.2293 C   0  0  0  0  0  0
    3.4831   -0.9611   -0.7567 C   0  0  0  0  0  0
    3.7941    1.4188   -0.5157 C   0  0  0  0  0  0
    5.8459   -0.0872   -0.6246 C   0  0  0  0  0  0
    8.0644    0.9455   -0.0732 C   0  0  0  0  0  0
    8.7670    1.5942   -1.2829 C   0  0  0  0  0  0
    8.5818    0.8448   -2.6122 C   0  0  0  0  0  0
   -4.8415    1.6325   -0.7222 H   0  0  0  0  0  0
   -0.3088   -0.1988   -1.0358 H   0  0  0  0  0  0
    6.1321    1.7650    0.1506 H   0  0  0  0  0  0
   -3.8434    5.1794    1.3168 H   0  0  0  0  0  0
   -1.2551    5.2157    2.2838 H   0  0  0  0  0  0
    0.3369    4.5303    2.1045 H   0  0  0  0  0  0
   -5.8289    3.6671    0.2470 H   0  0  0  0  0  0
    0.5314    5.5758   -0.1868 H   0  0  0  0  0  0
   -1.0515    6.2819    0.0055 H   0  0  0  0  0  0
    1.4597   -1.6419   -0.8554 H   0  0  0  0  0  0
    2.0378    2.6080   -0.4534 H   0  0  0  0  0  0
    3.8706   -1.9658   -0.8523 H   0  0  0  0  0  0
    4.4211    2.2950   -0.4355 H   0  0  0  0  0  0
    8.3389    1.4753    0.8396 H   0  0  0  0  0  0
    8.4311   -0.0759    0.0511 H   0  0  0  0  0  0
    8.4270    2.6247   -1.3951 H   0  0  0  0  0  0
    9.8348    1.6574   -1.0694 H   0  0  0  0  0  0
    9.1647    1.3127   -3.4059 H   0  0  0  0  0  0
    7.5390    0.8451   -2.9299 H   0  0  0  0  0  0
    8.9071   -0.1927   -2.5301 H   0  0  0  0  0  0
  1 22  1  0  0  0
  2 22  1  0  0  0
  3 22  1  0  0  0
  4 25  2  0  0  0
  5 11  2  0  0  0
  5 13  1  0  0  0
  6 12  1  0  0  0
  6 13  2  0  0  0
  7 11  1  0  0  0
  7 16  1  0  0  0
  7 29  1  0  0  0
  8 13  1  0  0  0
  8 17  1  0  0  0
  8 30  1  0  0  0
  9 25  1  0  0  0
  9 26  1  0  0  0
  9 31  1  0  0  0
 10 11  1  0  0  0
 10 12  2  0  0  0
 10 14  1  0  0  0
 12 15  1  0  0  0
 14 16  2  0  0  0
 14 32  1  0  0  0
 15 18  1  0  0  0
 15 33  1  0  0  0
 15 34  1  0  0  0
 16 35  1  0  0  0
 17 20  2  0  0  0
 17 21  1  0  0  0
 18 22  1  0  0  0
 18 36  1  0  0  0
 18 37  1  0  0  0
 19 23  2  0  0  0
 19 24  1  0  0  0
 19 25  1  0  0  0
 20 23  1  0  0  0
 20 38  1  0  0  0
 21 24  2  0  0  0
 21 39  1  0  0  0
 23 40  1  0  0  0
 24 41  1  0  0  0
 26 27  1  0  0  0
 26 42  1  0  0  0
 26 43  1  0  0  0
 27 28  1  0  0  0
 27 44  1  0  0  0
 27 45  1  0  0  0
 28 46  1  0  0  0
 28 47  1  0  0  0
 28 48  1  0  0  0
M  END
> <chembl_id>
CHEMBL1984760

> <chembl_pref_name>
None

> <s_m_source_file>
sdf/actives_sanitized.sdf

> <i_m_source_file_index>
14

> <i_lp_mmshare_version>
49012

> <i_m_ct_stereo_status>
1

> <i_f3d_flags>
0

> <s_epik_input>
RkMoRikoRilbQ0gyXVtDSDJdYzFuYyhuYyhjMTIpW25IXVtjSF1bY0hdMilbTkhdYzNbY0hdW2NIXWMoW2NIXVtjSF0zKUMoPU8pW05IXVtDSDJdW0NIMl1bQ0gzXQ==

> <s_epik_cmdline>
J2VwaWtfcHl0aG9uJywgJy1waHQnLCAnMC41JywgJy1waCcsICc3LjUnLCAnLW50JywgJy1tYScsICcyMDAnLCAnLWltYWUnLCAnPGluZmlsZS5tYWU+JywgJy1vbWFlJywgJzxvdXRmaWxlLm1hZT4n

> <r_lp_tautomer_probability>
1

> <r_epik_Ionization_Penalty>
  0.0000

> <r_epik_Ionization_Penalty_Charging>
  0.0000

> <r_epik_Ionization_Penalty_Neutral>
  0.0000

> <r_epik_State_Penalty>
 -0.0000

> <r_epik_Charging_Adjusted_Penalty>
0

> <i_epik_Tot_Q>
0

> <i_epik_Tot_abs_Q>
0

> <s_lp_Force_Field>
OPLS3e

> <r_lp_Energy>
20.834468

> <b_lp_Chiralities_Consistent>
1

> <s_lp_Variant>
sdf/actives_sanitized.sdf:14-1

$$$$
sdf/actives_sanitized.sdf:15
                    3D
 Schrodinger Suite 2020-1.
 44 46  0  0  1  0            999 V2000
   -4.2857   -1.3774   -2.9053 O   0  0  0  0  0  0
   -0.2441    2.0347   -1.5148 O   0  0  0  0  0  0
   -2.7320    1.7938   -3.2759 N   0  0  0  0  0  0
   -5.0532    0.6636   -2.2537 N   0  0  0  0  0  0
    0.1587    0.0326   -0.4770 N   0  0  0  0  0  0
    5.7154   -0.0756    0.5593 N   0  0  0  0  0  0
   -3.8018    2.6377   -2.9083 C   0  0  0  0  0  0
   -2.6715    0.4761   -2.5994 C   0  0  2  0  0  0
   -4.9589    2.0550   -2.3615 C   0  0  0  0  0  0
   -4.0772   -0.2085   -2.5867 C   0  0  0  0  0  0
   -2.1288    0.6042   -1.1414 C   0  0  0  0  0  0
   -3.6884    4.0260   -2.9923 C   0  0  0  0  0  0
   -6.0262    2.8668   -1.9714 C   0  0  0  0  0  0
   -0.6343    0.9601   -1.0567 C   0  0  0  0  0  0
    1.5445    0.0793   -0.2361 C   0  0  0  0  0  0
   -4.7525    4.8328   -2.5851 C   0  0  0  0  0  0
   -5.9202    4.2546   -2.0825 C   0  0  0  0  0  0
    4.3176   -0.0225    0.2912 C   0  0  0  0  0  0
    2.1747   -1.1432   -0.0119 C   0  0  0  0  0  0
    2.2968    1.2595   -0.1780 C   0  0  0  0  0  0
    3.5419   -1.1937    0.2441 C   0  0  0  0  0  0
    3.6635    1.2037    0.0804 C   0  0  0  0  0  0
    6.5387    1.1233    0.3979 C   0  0  0  0  0  0
    6.4181   -1.3590    0.5334 C   0  0  0  0  0  0
   -1.8315    2.2050   -3.4779 H   0  0  0  0  0  0
   -5.9602    0.2556   -2.0810 H   0  0  0  0  0  0
   -0.2800   -0.8434   -0.2329 H   0  0  0  0  0  0
   -2.0162   -0.1766   -3.1793 H   0  0  0  0  0  0
   -2.6806    1.3654   -0.5871 H   0  0  0  0  0  0
   -2.3097   -0.3246   -0.5948 H   0  0  0  0  0  0
   -2.7867    4.4803   -3.3773 H   0  0  0  0  0  0
   -6.9309    2.4304   -1.5729 H   0  0  0  0  0  0
   -4.6724    5.9073   -2.6592 H   0  0  0  0  0  0
   -6.7418    4.8834   -1.7727 H   0  0  0  0  0  0
    1.6114   -2.0652   -0.0402 H   0  0  0  0  0  0
    1.8465    2.2302   -0.3135 H   0  0  0  0  0  0
    3.9784   -2.1675    0.4034 H   0  0  0  0  0  0
    4.1966    2.1411    0.1138 H   0  0  0  0  0  0
    6.1568    1.9495    0.9980 H   0  0  0  0  0  0
    6.5364    1.4425   -0.6451 H   0  0  0  0  0  0
    7.5743    0.9506    0.6936 H   0  0  0  0  0  0
    5.9666   -2.0712    1.2242 H   0  0  0  0  0  0
    7.4692   -1.2553    0.8053 H   0  0  0  0  0  0
    6.3720   -1.7927   -0.4663 H   0  0  0  0  0  0
  1 10  2  0  0  0
  2 14  2  0  0  0
  3  7  1  0  0  0
  3  8  1  0  0  0
  3 25  1  0  0  0
  4  9  1  0  0  0
  4 10  1  0  0  0
  4 26  1  0  0  0
  5 14  1  0  0  0
  5 15  1  0  0  0
  5 27  1  0  0  0
  6 18  1  0  0  0
  6 23  1  0  0  0
  6 24  1  0  0  0
  7  9  2  0  0  0
  7 12  1  0  0  0
  8 10  1  0  0  0
  8 11  1  0  0  0
  8 28  1  0  0  0
  9 13  1  0  0  0
 11 14  1  0  0  0
 11 29  1  0  0  0
 11 30  1  0  0  0
 12 16  2  0  0  0
 12 31  1  0  0  0
 13 17  2  0  0  0
 13 32  1  0  0  0
 15 19  2  0  0  0
 15 20  1  0  0  0
 16 17  1  0  0  0
 16 33  1  0  0  0
 17 34  1  0  0  0
 18 21  2  0  0  0
 18 22  1  0  0  0
 19 21  1  0  0  0
 19 35  1  0  0  0
 20 22  2  0  0  0
 20 36  1  0  0  0
 21 37  1  0  0  0
 22 38  1  0  0  0
 23 39  1  0  0  0
 23 40  1  0  0  0
 23 41  1  0  0  0
 24 42  1  0  0  0
 24 43  1  0  0  0
 24 44  1  0  0  0
M  END
> <chembl_id>
CHEMBL1985469

> <chembl_pref_name>
None

> <s_m_source_file>
sdf/actives_sanitized.sdf

> <i_m_source_file_index>
15

> <i_lp_mmshare_version>
49012

> <i_m_ct_stereo_status>
1

> <i_f3d_flags>
0

> <s_epik_input>
W2NIXTFbY0hdW2NIXVtjSF1jKGMxMilbTkhdQyg9TylbQ0BASF0oW05IXTIpW0NIMl1DKD1PKVtOSF1jM1tjSF1bY0hdYyhOKFtDSDNdKVtDSDNdKVtjSF1bY0hdMw==

> <s_epik_cmdline>
J2VwaWtfcHl0aG9uJywgJy1waHQnLCAnMC41JywgJy1waCcsICc3LjUnLCAnLW50JywgJy1tYScsICcyMDAnLCAnLWltYWUnLCAnPGluZmlsZS5tYWU+JywgJy1vbWFlJywgJzxvdXRmaWxlLm1hZT4n

> <r_lp_tautomer_probability>
1

> <r_epik_Ionization_Penalty>
  0.0042

> <r_epik_Ionization_Penalty_Charging>
  0.0000

> <r_epik_Ionization_Penalty_Neutral>
  0.0042

> <r_epik_State_Penalty>
 -0.0000

> <r_epik_Charging_Adjusted_Penalty>
0

> <i_epik_Tot_Q>
0

> <i_epik_Tot_abs_Q>
0

> <s_lp_Force_Field>
OPLS3e

> <r_lp_Energy>
55.244356

> <b_lp_Chiralities_Consistent>
1

> <s_lp_Variant>
sdf/actives_sanitized.sdf:15-1

$$$$
sdf/actives_sanitized.sdf:16
                    3D
 Schrodinger Suite 2020-1.
 52 57  0  0  1  0            999 V2000
   -0.6118   -2.3044   -0.2075 O   0  0  0  0  0  0
   -3.2201    1.3357   -0.0861 O   0  0  0  0  0  0
   -2.1747   -0.6686   -0.1482 N   0  5  0  0  0  0
    1.9898    0.6803   -0.9139 N   0  0  0  0  0  0
    4.1693    0.0007   -0.1165 N   0  0  0  0  0  0
   -0.4408    4.7316   -0.3469 N   0  0  0  0  0  0
    3.9614    1.5201   -1.8608 N   0  0  0  0  0  0
    4.5035    3.4045   -4.0802 N   0  3  0  0  0  0
   -0.0772    0.0014    0.0209 C   0  0  0  0  0  0
   -0.8510    1.0991    0.0196 C   0  0  0  0  0  0
    1.4040   -0.0833    0.0422 C   0  0  0  0  0  0
   -0.4793    2.5186    0.1074 C   0  0  0  0  0  0
   -0.9547   -1.1256   -0.1211 C   0  0  0  0  0  0
    2.1602   -0.8543    0.9789 C   0  0  0  0  0  0
   -2.2089    0.6332   -0.0760 C   0  0  0  0  0  0
    0.5909    3.1318    0.8622 C   0  0  0  0  0  0
    3.5822   -0.7749    0.8396 C   0  0  0  0  0  0
    3.3447    0.7008   -0.9336 C   0  0  0  0  0  0
    0.6005    4.5243    0.5300 C   0  0  0  0  0  0
   -1.0861    3.5487   -0.5926 C   0  0  0  0  0  0
    1.6168   -1.6462    2.0263 C   0  0  0  0  0  0
    1.5445    2.6682    1.7874 C   0  0  0  0  0  0
    4.4095   -1.5042    1.7270 C   0  0  0  0  0  0
    1.5368    5.4188    1.0604 C   0  0  0  0  0  0
    2.4602   -2.3496    2.8825 C   0  0  0  0  0  0
    3.8418   -2.2824    2.7326 C   0  0  0  0  0  0
    2.4783    3.5576    2.3142 C   0  0  0  0  0  0
    3.8837    1.1116   -3.2737 C   0  0  0  0  0  0
    3.7327    2.9710   -1.7345 C   0  0  0  0  0  0
    2.4748    4.9009    1.9525 C   0  0  0  0  0  0
    4.8170    1.9090   -4.2080 C   0  0  0  0  0  0
    4.6629    3.8294   -2.6158 C   0  0  0  0  0  0
   -0.7233    5.6023   -0.7735 H   0  0  0  0  0  0
    5.1259    3.9409   -4.6679 H   0  0  0  0  0  0
   -1.9220    3.5331   -1.2770 H   0  0  0  0  0  0
    0.5481   -1.7034    2.1673 H   0  0  0  0  0  0
    1.5600    1.6359    2.0988 H   0  0  0  0  0  0
    5.4841   -1.4489    1.6249 H   0  0  0  0  0  0
    1.5384    6.4670    0.7997 H   0  0  0  0  0  0
    2.0373   -2.9521    3.6730 H   0  0  0  0  0  0
    4.4798   -2.8335    3.4077 H   0  0  0  0  0  0
    3.2145    3.1994    3.0190 H   0  0  0  0  0  0
    4.1382    0.0533   -3.3540 H   0  0  0  0  0  0
    2.8570    1.2317   -3.6256 H   0  0  0  0  0  0
    2.6981    3.1980   -2.0002 H   0  0  0  0  0  0
    3.8761    3.2660   -0.6935 H   0  0  0  0  0  0
    3.2125    5.5622    2.3830 H   0  0  0  0  0  0
    4.6579    1.6656   -5.2588 H   0  0  0  0  0  0
    5.8736    1.7836   -3.9646 H   0  0  0  0  0  0
    5.7185    3.7122   -2.3642 H   0  0  0  0  0  0
    4.4010    4.8874   -2.5875 H   0  0  0  0  0  0
    3.5578    3.5832   -4.3874 H   0  0  0  0  0  0
  1 13  2  0  0  0
  2 15  2  0  0  0
  3 13  1  0  0  0
  3 15  1  0  0  0
  4 11  2  0  0  0
  4 18  1  0  0  0
  5 17  1  0  0  0
  5 18  2  0  0  0
  6 19  1  0  0  0
  6 20  1  0  0  0
  6 33  1  0  0  0
  7 18  1  0  0  0
  7 28  1  0  0  0
  7 29  1  0  0  0
  8 31  1  0  0  0
  8 32  1  0  0  0
  8 34  1  0  0  0
  8 52  1  0  0  0
  9 10  2  0  0  0
  9 11  1  0  0  0
  9 13  1  0  0  0
 10 12  1  0  0  0
 10 15  1  0  0  0
 11 14  1  0  0  0
 12 16  1  0  0  0
 12 20  2  0  0  0
 14 17  2  0  0  0
 14 21  1  0  0  0
 16 19  2  0  0  0
 16 22  1  0  0  0
 17 23  1  0  0  0
 19 24  1  0  0  0
 20 35  1  0  0  0
 21 25  2  0  0  0
 21 36  1  0  0  0
 22 27  2  0  0  0
 22 37  1  0  0  0
 23 26  2  0  0  0
 23 38  1  0  0  0
 24 30  2  0  0  0
 24 39  1  0  0  0
 25 26  1  0  0  0
 25 40  1  0  0  0
 26 41  1  0  0  0
 27 30  1  0  0  0
 27 42  1  0  0  0
 28 31  1  0  0  0
 28 43  1  0  0  0
 28 44  1  0  0  0
 29 32  1  0  0  0
 29 45  1  0  0  0
 29 46  1  0  0  0
 30 47  1  0  0  0
 31 48  1  0  0  0
 31 49  1  0  0  0
 32 50  1  0  0  0
 32 51  1  0  0  0
M  CHG  2   3  -1   8   1
M  END
> <chembl_id>
CHEMBL1996510

> <chembl_pref_name>
None

> <s_m_source_file>
sdf/actives_sanitized.sdf

> <i_m_source_file_index>
16

> <i_lp_mmshare_version>
49012

> <i_m_ct_stereo_status>
1

> <i_f3d_flags>
0

> <s_epik_input>
W2NIXTFbY0hdW2NIXVtjSF1jKGMxMilbbkhdW2NIXWMyQyhDKD1PKVtOSF1DMz1PKT1DM2M0bmMobmMoYzQ1KVtjSF1bY0hdW2NIXVtjSF01KU42W0NIMl1bQ0gyXVtOSF1bQ0gyXVtDSDJdNg==

> <s_epik_cmdline>
J2VwaWtfcHl0aG9uJywgJy1waHQnLCAnMC41JywgJy1waCcsICc3LjUnLCAnLW50JywgJy1tYScsICcyMDAnLCAnLWltYWUnLCAnPGluZmlsZS5tYWU+JywgJy1vbWFlJywgJzxvdXRmaWxlLm1hZT4n

> <r_epik_Ionization_Penalty>
  0.3279

> <r_epik_Ionization_Penalty_Charging>
  0.3278

> <r_epik_Ionization_Penalty_Neutral>
  0.0000

> <r_epik_State_Penalty>
  0.3098

> <r_epik_Charging_Adjusted_Penalty>
0.63761444388534

> <i_epik_Tot_Q>
0

> <i_epik_Tot_abs_Q>
2

> <s_lp_Force_Field>
OPLS3e

> <r_lp_Energy>
65.052237

> <b_lp_Chiralities_Consistent>
1

> <s_lp_Variant>
sdf/actives_sanitized.sdf:16-1

$$$$
sdf/actives_sanitized.sdf:17
                    3D
 Schrodinger Suite 2020-1.
 44 46  0  0  1  0            999 V2000
    6.5630   -0.8586   -0.0001 O   0  0  0  0  0  0
    4.0742   -2.4071   -0.0000 N   0  0  0  0  0  0
    0.0833   -0.0080    0.0003 N   0  0  0  0  0  0
    6.4684    1.3727   -0.0000 N   0  0  0  0  0  0
   -3.0537    2.1505    0.0000 N   0  3  0  0  0  0
    3.6511   -1.0913    0.0000 C   0  0  0  0  0  0
    2.2245   -1.1450    0.0001 C   0  0  0  0  0  0
    3.0234   -3.2956    0.0000 C   0  0  0  0  0  0
    4.3697    0.1219    0.0000 C   0  0  0  0  0  0
    1.4884    0.0545    0.0002 C   0  0  0  0  0  0
    1.8656   -2.5356    0.0001 C   0  0  0  0  0  0
    3.2143   -4.7808   -0.0000 C   0  0  0  0  0  0
    3.5884    1.2885    0.0001 C   0  0  0  0  0  0
    2.1978    1.2602    0.0002 C   0  0  0  0  0  0
    5.8860    0.1685   -0.0000 C   0  0  0  0  0  0
    2.0997   -5.6271   -0.0000 C   0  0  0  0  0  0
    4.4983   -5.3407   -0.0000 C   0  0  0  0  0  0
    2.2648   -7.0097   -0.0000 C   0  0  0  0  0  0
    4.6648   -6.7227   -0.0000 C   0  0  0  0  0  0
    3.5473   -7.5582   -0.0000 C   0  0  0  0  0  0
   -0.7508    1.1858   -0.0001 C   0  0  0  0  0  0
   -2.2471    0.8494    0.0000 C   0  0  0  0  0  0
    3.7193   -9.0660   -0.0000 C   0  0  0  0  0  0
    5.0334   -2.7232   -0.0001 H   0  0  0  0  0  0
   -0.3669   -0.9124   -0.0006 H   0  0  0  0  0  0
    7.4753    1.4455   -0.0000 H   0  0  0  0  0  0
    5.9096    2.2129    0.0000 H   0  0  0  0  0  0
   -4.0430    1.9468    0.0001 H   0  0  0  0  0  0
   -2.8342    2.6957   -0.8215 H   0  0  0  0  0  0
    0.8647   -2.9404    0.0001 H   0  0  0  0  0  0
    4.0582    2.2615    0.0001 H   0  0  0  0  0  0
    1.6762    2.2056    0.0002 H   0  0  0  0  0  0
    1.0984   -5.2226   -0.0000 H   0  0  0  0  0  0
    5.3764   -4.7116   -0.0000 H   0  0  0  0  0  0
    1.3957   -7.6515   -0.0000 H   0  0  0  0  0  0
    5.6619   -7.1385   -0.0000 H   0  0  0  0  0  0
   -0.4979    1.7899    0.8729 H   0  0  0  0  0  0
   -0.4980    1.7892   -0.8736 H   0  0  0  0  0  0
   -2.5751    0.3263    0.8992 H   0  0  0  0  0  0
   -2.5752    0.3263   -0.8991 H   0  0  0  0  0  0
    4.7693   -9.3620   -0.0000 H   0  0  0  0  0  0
    3.2400   -9.4989   -0.8787 H   0  0  0  0  0  0
    3.2400   -9.4989    0.8787 H   0  0  0  0  0  0
   -2.8341    2.6957    0.8215 H   0  0  0  0  0  0
  1 15  2  0  0  0
  2  6  1  0  0  0
  2  8  1  0  0  0
  2 24  1  0  0  0
  3 10  1  0  0  0
  3 21  1  0  0  0
  3 25  1  0  0  0
  4 15  1  0  0  0
  4 26  1  0  0  0
  4 27  1  0  0  0
  5 22  1  0  0  0
  5 28  1  0  0  0
  5 29  1  0  0  0
  5 44  1  0  0  0
  6  7  2  0  0  0
  6  9  1  0  0  0
  7 10  1  0  0  0
  7 11  1  0  0  0
  8 11  2  0  0  0
  8 12  1  0  0  0
  9 13  2  0  0  0
  9 15  1  0  0  0
 10 14  2  0  0  0
 11 30  1  0  0  0
 12 16  2  0  0  0
 12 17  1  0  0  0
 13 14  1  0  0  0
 13 31  1  0  0  0
 14 32  1  0  0  0
 16 18  1  0  0  0
 16 33  1  0  0  0
 17 19  2  0  0  0
 17 34  1  0  0  0
 18 20  2  0  0  0
 18 35  1  0  0  0
 19 20  1  0  0  0
 19 36  1  0  0  0
 20 23  1  0  0  0
 21 22  1  0  0  0
 21 37  1  0  0  0
 21 38  1  0  0  0
 22 39  1  0  0  0
 22 40  1  0  0  0
 23 41  1  0  0  0
 23 42  1  0  0  0
 23 43  1  0  0  0
M  CHG  1   5   1
M  END
> <chembl_id>
CHEMBL1996048

> <chembl_pref_name>
None

> <s_m_source_file>
sdf/actives_sanitized.sdf

> <i_m_source_file_index>
17

> <i_lp_mmshare_version>
49012

> <i_m_ct_stereo_status>
1

> <i_f3d_flags>
0

> <s_epik_input>
Tz1DKFtOSDJdKWMxW2NIXVtjSF1jKFtOSF1bQ0gyXVtDSDJdW05IMl0pYyhjMTIpW2NIXWMoW25IXTIpLWMzW2NIXVtjSF1jKFtDSDNdKVtjSF1bY0hdMw==

> <s_epik_cmdline>
J2VwaWtfcHl0aG9uJywgJy1waHQnLCAnMC41JywgJy1waCcsICc3LjUnLCAnLW50JywgJy1tYScsICcyMDAnLCAnLWltYWUnLCAnPGluZmlsZS5tYWU+JywgJy1vbWFlJywgJzxvdXRmaWxlLm1hZT4n

> <r_lp_tautomer_probability>
1

> <r_epik_Ionization_Penalty>
  0.0011

> <r_epik_Ionization_Penalty_Charging>
  0.0011

> <r_epik_Ionization_Penalty_Neutral>
  0.0000

> <r_epik_State_Penalty>
 -0.0000

> <r_epik_Charging_Adjusted_Penalty>
0.00112069742504408

> <i_epik_Tot_Q>
1

> <i_epik_Tot_abs_Q>
1

> <s_lp_Force_Field>
OPLS3e

> <r_lp_Energy>
29.504339

> <b_lp_Chiralities_Consistent>
1

> <s_lp_Variant>
sdf/actives_sanitized.sdf:17-1

$$$$
sdf/actives_sanitized.sdf:18
                    3D
 Schrodinger Suite 2020-1.
 38 40  0  0  1  0            999 V2000
    4.1677   -2.4206    0.0344 N   0  0  0  0  0  0
    4.4088   -0.0138    0.0682 N   0  0  0  0  0  0
    0.1829    0.0638   -0.0780 N   0  0  0  0  0  0
    2.2976    1.1981    0.0241 N   0  0  0  0  0  0
    2.2556   -1.2110    0.0299 C   0  0  0  0  0  0
    1.9069   -2.6178    0.0348 C   0  0  0  0  0  0
    3.6813   -1.1351    0.0499 C   0  0  0  0  0  0
    1.5876    0.0361    0.0005 C   0  0  0  0  0  0
    0.5578   -3.2530    0.0732 C   0  0  0  0  0  0
    3.1153   -3.3000    0.0132 C   0  0  0  0  0  0
   -0.6897    1.2443   -0.0922 C   0  0  0  0  0  0
    3.6497    1.1110    0.0599 C   0  0  0  0  0  0
    0.2726   -4.3178   -0.7876 C   0  0  0  0  0  0
   -0.4241   -2.7934    0.9563 C   0  0  0  0  0  0
   -0.9876   -4.9101   -0.7733 C   0  0  0  0  0  0
   -1.6850   -3.3834    0.9701 C   0  0  0  0  0  0
   -2.1499    0.7456   -0.1608 C   0  0  0  0  0  0
   -0.4268    2.1342   -1.3315 C   0  0  0  0  0  0
   -0.5307    2.0862    1.1976 C   0  0  0  0  0  0
   -1.9617   -4.4387    0.1040 C   0  0  0  0  0  0
    5.1325   -2.7184    0.0384 H   0  0  0  0  0  0
   -0.2854   -0.8308   -0.1050 H   0  0  0  0  0  0
    3.3155   -4.3615    0.0072 H   0  0  0  0  0  0
    4.1863    2.0482    0.0759 H   0  0  0  0  0  0
    1.0224   -4.6827   -1.4747 H   0  0  0  0  0  0
   -0.2115   -1.9851    1.6407 H   0  0  0  0  0  0
   -1.2096   -5.7292   -1.4417 H   0  0  0  0  0  0
   -2.4432   -3.0260    1.6512 H   0  0  0  0  0  0
   -2.8594    1.5743   -0.1742 H   0  0  0  0  0  0
   -2.4021    0.1191    0.6966 H   0  0  0  0  0  0
   -2.3309    0.1519   -1.0585 H   0  0  0  0  0  0
   -0.5058    1.5630   -2.2578 H   0  0  0  0  0  0
    0.5604    2.5944   -1.3170 H   0  0  0  0  0  0
   -1.1479    2.9504   -1.3938 H   0  0  0  0  0  0
   -1.2543    2.9019    1.2307 H   0  0  0  0  0  0
    0.4546    2.5431    1.2828 H   0  0  0  0  0  0
   -0.6865    1.4808    2.0918 H   0  0  0  0  0  0
   -2.9397   -4.8970    0.1146 H   0  0  0  0  0  0
  1  7  1  0  0  0
  1 10  1  0  0  0
  1 21  1  0  0  0
  2  7  2  0  0  0
  2 12  1  0  0  0
  3  8  1  0  0  0
  3 11  1  0  0  0
  3 22  1  0  0  0
  4  8  1  0  0  0
  4 12  2  0  0  0
  5  6  1  0  0  0
  5  7  1  0  0  0
  5  8  2  0  0  0
  6  9  1  0  0  0
  6 10  2  0  0  0
  9 13  2  0  0  0
  9 14  1  0  0  0
 10 23  1  0  0  0
 11 17  1  0  0  0
 11 18  1  0  0  0
 11 19  1  0  0  0
 12 24  1  0  0  0
 13 15  1  0  0  0
 13 25  1  0  0  0
 14 16  2  0  0  0
 14 26  1  0  0  0
 15 20  2  0  0  0
 15 27  1  0  0  0
 16 20  1  0  0  0
 16 28  1  0  0  0
 17 29  1  0  0  0
 17 30  1  0  0  0
 17 31  1  0  0  0
 18 32  1  0  0  0
 18 33  1  0  0  0
 18 34  1  0  0  0
 19 35  1  0  0  0
 19 36  1  0  0  0
 19 37  1  0  0  0
 20 38  1  0  0  0
M  END
> <chembl_id>
CHEMBL1995211

> <chembl_pref_name>
None

> <s_m_source_file>
sdf/actives_sanitized.sdf

> <i_m_source_file_index>
18

> <i_lp_mmshare_version>
49012

> <i_m_ct_stereo_status>
1

> <i_f3d_flags>
0

> <s_epik_input>
W0NIM11DKFtDSDNdKShbQ0gzXSlbTkhdYzFuW2NIXW5jKGMxMilbbkhdW2NIXWMyLWMzW2NIXVtjSF1bY0hdW2NIXVtjSF0z

> <s_epik_cmdline>
J2VwaWtfcHl0aG9uJywgJy1waHQnLCAnMC41JywgJy1waCcsICc3LjUnLCAnLW50JywgJy1tYScsICcyMDAnLCAnLWltYWUnLCAnPGluZmlsZS5tYWU+JywgJy1vbWFlJywgJzxvdXRmaWxlLm1hZT4n

> <r_lp_tautomer_probability>
1

> <r_epik_Ionization_Penalty>
  0.0022

> <r_epik_Ionization_Penalty_Charging>
  0.0000

> <r_epik_Ionization_Penalty_Neutral>
  0.0022

> <r_epik_State_Penalty>
 -0.0000

> <r_epik_Charging_Adjusted_Penalty>
0

> <i_epik_Tot_Q>
0

> <i_epik_Tot_abs_Q>
0

> <s_lp_Force_Field>
OPLS3e

> <r_lp_Energy>
24.635655

> <b_lp_Chiralities_Consistent>
1

> <s_lp_Variant>
sdf/actives_sanitized.sdf:18-1

$$$$
sdf/actives_sanitized.sdf:19
                    3D
 Schrodinger Suite 2020-1.
 42 45  0  0  1  0            999 V2000
   -3.1738    4.7212   -0.0224 O   0  0  0  0  0  0
    4.3403   -0.0456   -2.3317 O   0  0  0  0  0  0
    5.6679   -0.1040   -0.0223 O   0  0  0  0  0  0
   -0.6180   -1.1814    0.0602 N   0  0  0  0  0  0
   -1.9543   -1.2771    0.0575 N   0  5  0  0  0  0
   -2.1492    1.1537    0.0227 C   0  0  0  0  0  0
   -0.7220    1.2593    0.0261 C   0  0  0  0  0  0
   -0.0113    0.0308    0.0442 C   0  0  0  0  0  0
   -2.9771    2.3300    0.0041 C   0  0  0  0  0  0
   -2.7312   -0.1592    0.0386 C   0  0  0  0  0  0
    1.4688   -0.0285    0.0457 C   0  0  0  0  0  0
   -2.3492    3.6086   -0.0073 C   0  0  0  0  0  0
   -0.1495    2.5506    0.0127 C   0  0  0  0  0  0
   -4.3831    2.1390   -0.0008 C   0  0  0  0  0  0
   -0.9493    3.6856   -0.0024 C   0  0  0  0  0  0
   -4.1388   -0.2683    0.0341 C   0  0  0  0  0  0
    2.1802   -0.0165   -1.1562 C   0  0  0  0  0  0
    2.1739   -0.0594    1.2486 C   0  0  0  0  0  0
    3.5859   -0.0473   -1.1711 C   0  0  0  0  0  0
   -4.9403    0.8659    0.0134 C   0  0  0  0  0  0
    4.2855   -0.0804    0.0449 C   0  0  0  0  0  0
    3.5658   -0.0862    1.2517 C   0  0  0  0  0  0
   -2.5998    6.0241   -0.0178 C   0  0  0  0  0  0
    3.6835   -0.0318   -3.5946 C   0  0  0  0  0  0
    6.4265   -0.1361    1.1817 C   0  0  0  0  0  0
    0.9257    2.6556    0.0158 H   0  0  0  0  0  0
   -5.0349    3.0003   -0.0154 H   0  0  0  0  0  0
   -0.4489    4.6418   -0.0106 H   0  0  0  0  0  0
   -4.5934   -1.2485    0.0468 H   0  0  0  0  0  0
    1.6184    0.0178   -2.0777 H   0  0  0  0  0  0
    1.6403   -0.0593    2.1881 H   0  0  0  0  0  0
   -6.0148    0.7569    0.0088 H   0  0  0  0  0  0
    4.0689   -0.1098    2.2061 H   0  0  0  0  0  0
   -3.3968    6.7674   -0.0224 H   0  0  0  0  0  0
   -1.9856    6.1942   -0.9032 H   0  0  0  0  0  0
   -1.9967    6.1929    0.8755 H   0  0  0  0  0  0
    4.4305   -0.0485   -4.3880 H   0  0  0  0  0  0
    3.0850    0.8712   -3.7237 H   0  0  0  0  0  0
    3.0455   -0.9073   -3.7246 H   0  0  0  0  0  0
    7.4886   -0.1505    0.9380 H   0  0  0  0  0  0
    6.2101   -1.0312    1.7668 H   0  0  0  0  0  0
    6.2408    0.7468    1.7950 H   0  0  0  0  0  0
  1 12  1  0  0  0
  1 23  1  0  0  0
  2 19  1  0  0  0
  2 24  1  0  0  0
  3 21  1  0  0  0
  3 25  1  0  0  0
  4  5  1  0  0  0
  4  8  2  0  0  0
  5 10  1  0  0  0
  6  7  2  0  0  0
  6  9  1  0  0  0
  6 10  1  0  0  0
  7  8  1  0  0  0
  7 13  1  0  0  0
  8 11  1  0  0  0
  9 12  2  0  0  0
  9 14  1  0  0  0
 10 16  2  0  0  0
 11 17  2  0  0  0
 11 18  1  0  0  0
 12 15  1  0  0  0
 13 15  2  0  0  0
 13 26  1  0  0  0
 14 20  2  0  0  0
 14 27  1  0  0  0
 15 28  1  0  0  0
 16 20  1  0  0  0
 16 29  1  0  0  0
 17 19  1  0  0  0
 17 30  1  0  0  0
 18 22  2  0  0  0
 18 31  1  0  0  0
 19 21  2  0  0  0
 20 32  1  0  0  0
 21 22  1  0  0  0
 22 33  1  0  0  0
 23 34  1  0  0  0
 23 35  1  0  0  0
 23 36  1  0  0  0
 24 37  1  0  0  0
 24 38  1  0  0  0
 24 39  1  0  0  0
 25 40  1  0  0  0
 25 41  1  0  0  0
 25 42  1  0  0  0
M  CHG  1   5  -1
M  END
> <chembl_id>
CHEMBL1997335

> <chembl_pref_name>
None

> <s_m_source_file>
sdf/actives_sanitized.sdf

> <i_m_source_file_index>
19

> <i_lp_mmshare_version>
49012

> <i_m_ct_stereo_status>
1

> <i_f3d_flags>
0

> <s_epik_input>
W2NIXTFbY0hdYyhPW0NIM10pYzJbY0hdW2NIXVtjSF1jM1tuSF1uYyhjMWMyMyktYzRbY0hdYyhPW0NIM10pYyhPW0NIM10pW2NIXVtjSF00

> <s_epik_cmdline>
J2VwaWtfcHl0aG9uJywgJy1waHQnLCAnMC41JywgJy1waCcsICc3LjUnLCAnLW50JywgJy1tYScsICcyMDAnLCAnLWltYWUnLCAnPGluZmlsZS5tYWU+JywgJy1vbWFlJywgJzxvdXRmaWxlLm1hZT4n

> <r_lp_tautomer_probability>
1

> <r_epik_Ionization_Penalty>
  0.0261

> <r_epik_Ionization_Penalty_Charging>
  0.0260

> <r_epik_Ionization_Penalty_Neutral>
  0.0001

> <r_epik_State_Penalty>
  0.0212

> <r_epik_Charging_Adjusted_Penalty>
0.047232340621446

> <i_epik_Tot_Q>
-1

> <i_epik_Tot_abs_Q>
1

> <s_lp_Force_Field>
OPLS3e

> <r_lp_Energy>
57.18106

> <b_lp_Chiralities_Consistent>
1

> <s_lp_Variant>
sdf/actives_sanitized.sdf:19-1

$$$$
sdf/actives_sanitized.sdf:20
                    3D
 Schrodinger Suite 2020-1.
 51 54  0  0  1  0            999 V2000
   -6.0613    5.4409    1.6682 Cl  0  0  0  0  0  0
   -9.6054    3.4023    5.1116 O   0  0  0  0  0  0
   -2.2989   -0.2450    0.9916 N   0  0  0  0  0  0
   -0.3295    1.0608    0.4313 N   0  0  0  0  0  0
   -2.2228    2.1269    1.2497 N   0  0  0  0  0  0
   -2.0546   -2.6290    0.5826 N   0  0  0  0  0  0
   -7.1636    3.3743    3.5922 N   0  0  0  0  0  0
   -0.2820   -1.3184    0.1032 C   0  0  0  0  0  0
   -1.6150   -1.3233    0.5963 C   0  0  0  0  0  0
    0.3392   -0.0583    0.0405 C   0  0  0  0  0  0
   -1.6001    0.9220    0.8911 C   0  0  0  0  0  0
   -5.9415    3.0580    3.0194 C   0  0  0  0  0  0
   -3.4641    2.3987    1.8486 C   0  0  0  0  0  0
   -5.3274    3.9348    2.1099 C   0  0  0  0  0  0
    0.0568   -2.6768   -0.2076 C   0  0  0  0  0  0
   -4.0971    3.6040    1.5384 C   0  0  0  0  0  0
   -5.2942    1.8574    3.3417 C   0  0  0  0  0  0
    1.7531    0.1749   -0.4750 C   0  0  0  0  0  0
   -4.0672    1.5316    2.7664 C   0  0  0  0  0  0
   -1.0543   -3.4412    0.1012 C   0  0  0  0  0  0
   -7.1907    3.6566    5.0350 C   0  0  0  0  0  0
   -8.3218    2.5398    3.2395 C   0  0  0  0  0  0
    1.8147    0.6869   -1.9348 C   0  0  0  0  0  0
   -8.5377    4.2669    5.4789 C   0  0  0  0  0  0
   -9.6507    3.1694    3.7095 C   0  0  0  0  0  0
    1.2014   -0.3066   -2.9419 C   0  0  0  0  0  0
    3.2584    1.0444   -2.3319 C   0  0  0  0  0  0
   -1.6611    2.9451    1.0647 H   0  0  0  0  0  0
   -2.9570   -2.9807    0.8680 H   0  0  0  0  0  0
    0.9869   -3.0550   -0.6062 H   0  0  0  0  0  0
   -3.6375    4.2900    0.8407 H   0  0  0  0  0  0
   -5.7406    1.1704    4.0462 H   0  0  0  0  0  0
    2.2409    0.8947    0.1855 H   0  0  0  0  0  0
    2.3260   -0.7482   -0.3743 H   0  0  0  0  0  0
   -3.5907    0.6066    3.0545 H   0  0  0  0  0  0
   -1.2226   -4.5052    0.0181 H   0  0  0  0  0  0
   -6.9765    2.7475    5.5994 H   0  0  0  0  0  0
   -6.3937    4.3642    5.2695 H   0  0  0  0  0  0
   -8.3554    2.4236    2.1551 H   0  0  0  0  0  0
   -8.2033    1.5384    3.6571 H   0  0  0  0  0  0
    1.2338    1.6094   -1.9894 H   0  0  0  0  0  0
   -8.6816    5.2592    5.0466 H   0  0  0  0  0  0
   -8.5495    4.3939    6.5617 H   0  0  0  0  0  0
  -10.4788    2.4937    3.4949 H   0  0  0  0  0  0
   -9.8573    4.0974    3.1728 H   0  0  0  0  0  0
    1.7215   -1.2651   -2.9230 H   0  0  0  0  0  0
    1.2554    0.0798   -3.9605 H   0  0  0  0  0  0
    0.1490   -0.4960   -2.7286 H   0  0  0  0  0  0
    3.9086    0.1688   -2.3069 H   0  0  0  0  0  0
    3.6813    1.7902   -1.6576 H   0  0  0  0  0  0
    3.3003    1.4595   -3.3395 H   0  0  0  0  0  0
  1 14  1  0  0  0
  2 24  1  0  0  0
  2 25  1  0  0  0
  3  9  2  0  0  0
  3 11  1  0  0  0
  4 10  1  0  0  0
  4 11  2  0  0  0
  5 11  1  0  0  0
  5 13  1  0  0  0
  5 28  1  0  0  0
  6  9  1  0  0  0
  6 20  1  0  0  0
  6 29  1  0  0  0
  7 12  1  0  0  0
  7 21  1  0  0  0
  7 22  1  0  0  0
  8  9  1  0  0  0
  8 10  2  0  0  0
  8 15  1  0  0  0
 10 18  1  0  0  0
 12 14  2  0  0  0
 12 17  1  0  0  0
 13 16  2  0  0  0
 13 19  1  0  0  0
 14 16  1  0  0  0
 15 20  2  0  0  0
 15 30  1  0  0  0
 16 31  1  0  0  0
 17 19  2  0  0  0
 17 32  1  0  0  0
 18 23  1  0  0  0
 18 33  1  0  0  0
 18 34  1  0  0  0
 19 35  1  0  0  0
 20 36  1  0  0  0
 21 24  1  0  0  0
 21 37  1  0  0  0
 21 38  1  0  0  0
 22 25  1  0  0  0
 22 39  1  0  0  0
 22 40  1  0  0  0
 23 26  1  0  0  0
 23 27  1  0  0  0
 23 41  1  0  0  0
 24 42  1  0  0  0
 24 43  1  0  0  0
 25 44  1  0  0  0
 25 45  1  0  0  0
 26 46  1  0  0  0
 26 47  1  0  0  0
 26 48  1  0  0  0
 27 49  1  0  0  0
 27 50  1  0  0  0
 27 51  1  0  0  0
M  END
> <chembl_id>
CHEMBL1980763

> <chembl_pref_name>
None

> <s_m_source_file>
sdf/actives_sanitized.sdf

> <i_m_source_file_index>
20

> <i_lp_mmshare_version>
49012

> <i_m_ct_stereo_status>
1

> <i_f3d_flags>
0

> <s_epik_input>
W0NIMl0xW0NIMl1PW0NIMl1bQ0gyXU4xYzJjKENsKVtjSF1jKFtjSF1bY0hdMilbTkhdYyhuYyhjMzQpW25IXVtjSF1bY0hdNCluYzNbQ0gyXVtDSF0oW0NIM10pW0NIM10=

> <s_epik_cmdline>
J2VwaWtfcHl0aG9uJywgJy1waHQnLCAnMC41JywgJy1waCcsICc3LjUnLCAnLW50JywgJy1tYScsICcyMDAnLCAnLWltYWUnLCAnPGluZmlsZS5tYWU+JywgJy1vbWFlJywgJzxvdXRmaWxlLm1hZT4n

> <r_lp_tautomer_probability>
1

> <r_epik_Ionization_Penalty>
  0.0001

> <r_epik_Ionization_Penalty_Charging>
  0.0000

> <r_epik_Ionization_Penalty_Neutral>
  0.0001

> <r_epik_State_Penalty>
 -0.0000

> <r_epik_Charging_Adjusted_Penalty>
0

> <i_epik_Tot_Q>
0

> <i_epik_Tot_abs_Q>
0

> <s_lp_Force_Field>
OPLS3e

> <r_lp_Energy>
28.493417

> <b_lp_Chiralities_Consistent>
1

> <s_lp_Variant>
sdf/actives_sanitized.sdf:20-1

$$$$
sdf/actives_sanitized.sdf:21
                    3D
 Schrodinger Suite 2020-1.
 62 66  0  0  1  0            999 V2000
   -4.0820   -6.2580    0.5664 C   0  0  0  0  0  0
   -3.5984   -4.9153    0.8728 N   0  0  0  0  0  0
   -2.1789   -4.8078    0.5488 C   0  0  0  0  0  0
   -1.6455   -3.4082    0.9252 C   0  0  0  0  0  0
   -2.3863   -2.2828    0.3104 N   0  0  0  0  0  0
   -3.8470   -2.4933    0.4069 C   0  0  0  0  0  0
   -4.3150   -3.9284    0.0693 C   0  0  0  0  0  0
   -1.8017   -1.0319    0.0754 C   0  0  0  0  0  0
   -2.5470    0.1028   -0.3104 C   0  0  0  0  0  0
   -1.8763    1.3127   -0.5704 C   0  0  0  0  0  0
   -2.4926    2.5454   -0.9470 N   0  0  0  0  0  0
   -3.7683    2.8069   -1.3560 C   0  0  0  0  0  0
   -4.3100    4.0838   -1.5667 C   0  0  0  0  0  0
   -5.6162    3.9136   -1.9884 C   0  0  0  0  0  0
   -6.7174    4.8715   -2.3717 C   0  0  0  0  0  0
   -5.7647    2.5545   -2.0070 N   0  0  0  0  0  0
   -4.6679    1.8859   -1.6369 N   0  0  0  0  0  0
   -0.5369    1.3308   -0.4259 N   0  3  0  0  0  0
    0.1534    0.2384   -0.0611 C   0  0  0  0  0  0
    1.8997    0.4049    0.0929 S   0  0  0  0  0  0
    2.0886    0.2975    1.8438 C   0  0  0  0  0  0
    2.1727   -0.9515    2.4569 C   0  0  0  0  0  0
    2.3160   -1.0313    3.8394 C   0  0  0  0  0  0
    2.3699    0.1330    4.6108 C   0  0  0  0  0  0
    2.5247   -0.0503    5.9976 N   0  0  0  0  0  0
    2.2921    0.8203    7.0061 C   0  0  0  0  0  0
    1.8537    1.9601    6.8557 O   0  0  0  0  0  0
    2.5788    0.3478    8.4437 C   0  0  0  0  0  0
    2.8543   -1.1202    8.7022 C   0  0  0  0  0  0
    1.5112   -0.5116    9.0763 C   0  0  0  0  0  0
    2.3027    1.3871    3.9818 C   0  0  0  0  0  0
    2.1582    1.4659    2.5996 C   0  0  0  0  0  0
   -0.4420   -0.9529    0.1878 N   0  0  0  0  0  0
   -5.1427   -6.3476    0.8043 H   0  0  0  0  0  0
   -3.5505   -7.0022    1.1610 H   0  0  0  0  0  0
   -3.9485   -6.5080   -0.4877 H   0  0  0  0  0  0
   -1.6217   -5.5630    1.1056 H   0  0  0  0  0  0
   -2.0021   -5.0061   -0.5106 H   0  0  0  0  0  0
   -1.7075   -3.2966    2.0091 H   0  0  0  0  0  0
   -0.5861   -3.3726    0.6705 H   0  0  0  0  0  0
   -4.1559   -2.2626    1.4277 H   0  0  0  0  0  0
   -4.3912   -1.8202   -0.2521 H   0  0  0  0  0  0
   -5.3843   -4.0095    0.2706 H   0  0  0  0  0  0
   -4.1837   -4.1241   -0.9972 H   0  0  0  0  0  0
   -3.6182    0.0541   -0.3856 H   0  0  0  0  0  0
   -1.8762    3.3447   -0.9202 H   0  0  0  0  0  0
   -3.8036    5.0276   -1.4262 H   0  0  0  0  0  0
   -6.3924    5.9099   -2.3029 H   0  0  0  0  0  0
   -7.5879    4.7641   -1.7242 H   0  0  0  0  0  0
   -7.0551    4.7087   -3.3954 H   0  0  0  0  0  0
   -6.6133    2.0775   -2.2763 H   0  0  0  0  0  0
    2.1221   -1.8562    1.8683 H   0  0  0  0  0  0
    2.3782   -2.0043    4.3060 H   0  0  0  0  0  0
    2.7942   -0.9840    6.2695 H   0  0  0  0  0  0
    3.0913    1.0839    9.0642 H   0  0  0  0  0  0
    2.8937   -1.8384    7.8828 H   0  0  0  0  0  0
    3.5570   -1.3743    9.4961 H   0  0  0  0  0  0
    0.6265   -0.7849    8.4990 H   0  0  0  0  0  0
    1.2782   -0.3476   10.1287 H   0  0  0  0  0  0
    2.3753    2.3101    4.5352 H   0  0  0  0  0  0
    2.1050    2.4332    2.1212 H   0  0  0  0  0  0
   -0.0352    2.1900   -0.5980 H   0  0  0  0  0  0
  1  2  1  0  0  0
  1 34  1  0  0  0
  1 35  1  0  0  0
  1 36  1  0  0  0
  2  3  1  0  0  0
  2  7  1  0  0  0
  3  4  1  0  0  0
  3 37  1  0  0  0
  3 38  1  0  0  0
  4  5  1  0  0  0
  4 39  1  0  0  0
  4 40  1  0  0  0
  5  6  1  0  0  0
  5  8  1  0  0  0
  6  7  1  0  0  0
  6 41  1  0  0  0
  6 42  1  0  0  0
  7 43  1  0  0  0
  7 44  1  0  0  0
  8  9  2  0  0  0
  8 33  1  0  0  0
  9 10  1  0  0  0
  9 45  1  0  0  0
 10 11  1  0  0  0
 10 18  2  0  0  0
 11 12  1  0  0  0
 11 46  1  0  0  0
 12 13  1  0  0  0
 12 17  2  0  0  0
 13 14  2  0  0  0
 13 47  1  0  0  0
 14 15  1  0  0  0
 14 16  1  0  0  0
 15 48  1  0  0  0
 15 49  1  0  0  0
 15 50  1  0  0  0
 16 17  1  0  0  0
 16 51  1  0  0  0
 18 19  1  0  0  0
 18 62  1  0  0  0
 19 20  1  0  0  0
 19 33  2  0  0  0
 20 21  1  0  0  0
 21 22  2  0  0  0
 21 32  1  0  0  0
 22 23  1  0  0  0
 22 52  1  0  0  0
 23 24  2  0  0  0
 23 53  1  0  0  0
 24 25  1  0  0  0
 24 31  1  0  0  0
 25 26  1  0  0  0
 25 54  1  0  0  0
 26 27  2  0  0  0
 26 28  1  0  0  0
 28 29  1  0  0  0
 28 30  1  0  0  0
 28 55  1  0  0  0
 29 30  1  0  0  0
 29 56  1  0  0  0
 29 57  1  0  0  0
 30 58  1  0  0  0
 30 59  1  0  0  0
 31 32  2  0  0  0
 31 60  1  0  0  0
 32 61  1  0  0  0
M  CHG  1  18   1
M  END
> <chembl_id>
CHEMBL572878

> <chembl_pref_name>
TOZASERTIB

> <s_m_source_file>
sdf/actives_sanitized.sdf

> <i_m_source_file_index>
21

> <i_lp_mmshare_version>
49012

> <i_m_ct_stereo_status>
1

> <i_f3d_flags>
0

> <s_epik_input>
W0NIM11OMVtDSDJdW0NIMl1OKFtDSDJdW0NIMl0xKWMyW2NIXWMoW05IXWMzW2NIXWMoW0NIM10pW25IXW4zKW5jKG4yKVNjNFtjSF1bY0hdYyhbY0hdW2NIXTQpW05IXUMoPU8pW0NIXTVbQ0gyXVtDSDJdNQ==

> <s_epik_cmdline>
J2VwaWtfcHl0aG9uJywgJy1waHQnLCAnMC41JywgJy1waCcsICc3LjUnLCAnLW50JywgJy1tYScsICcyMDAnLCAnLWltYWUnLCAnPGluZmlsZS5tYWU+JywgJy1vbWFlJywgJzxvdXRmaWxlLm1hZT4n

> <r_lp_tautomer_probability>
0.000238314207161384

> <r_epik_Ionization_Penalty>
  0.4923

> <r_epik_Ionization_Penalty_Charging>
  0.1259

> <r_epik_Ionization_Penalty_Neutral>
  0.3665

> <r_epik_State_Penalty>
  0.3629

> <r_epik_Charging_Adjusted_Penalty>
0.488775303755495

> <i_epik_Tot_Q>
1

> <i_epik_Tot_abs_Q>
1

> <s_lp_Force_Field>
OPLS3e

> <r_lp_Energy>
76.509974

> <b_lp_Chiralities_Consistent>
1

> <s_lp_Variant>
sdf/actives_sanitized.sdf:21-1

$$$$
sdf/actives_sanitized.sdf:21
                    3D
 Schrodinger Suite 2020-1.
 63 67  0  0  1  0            999 V2000
   -1.8262   -6.5255   -1.0073 C   0  0  0  0  0  0
   -1.8310   -5.2935   -0.0815 N   0  3  0  0  0  0
   -2.7823   -4.2082   -0.6222 C   0  0  0  0  0  0
   -2.7475   -3.0009    0.3403 C   0  0  0  0  0  0
   -1.3972   -2.4196    0.4775 N   0  0  0  0  0  0
   -0.4803   -3.4695    0.9717 C   0  0  0  0  0  0
   -0.4160   -4.6951    0.0360 C   0  0  0  0  0  0
   -1.0004   -1.1535    0.0316 C   0  0  0  0  0  0
   -1.9019   -0.2096   -0.5046 C   0  0  0  0  0  0
   -1.4220    1.0443   -0.9095 C   0  0  0  0  0  0
   -2.3245    2.0086   -1.4472 N   0  0  0  0  0  0
   -2.0548    3.2654   -1.9040 C   0  0  0  0  0  0
   -0.8431    3.9763   -2.0217 C   0  0  0  0  0  0
   -1.1525    5.2152   -2.5542 C   0  0  0  0  0  0
   -0.3254    6.4228   -2.9222 C   0  0  0  0  0  0
   -2.5095    5.1620   -2.7152 N   0  0  0  0  0  0
   -3.0549    4.0031   -2.3326 N   0  0  0  0  0  0
   -0.1051    1.2952   -0.7628 N   0  3  0  0  0  0
    0.7347    0.3850   -0.2445 C   0  0  0  0  0  0
    2.4246    0.8485   -0.0833 S   0  0  0  0  0  0
    2.3963    1.6145    1.5051 C   0  0  0  0  0  0
    2.5082    0.8296    2.6511 C   0  0  0  0  0  0
    2.4807    1.4339    3.9045 C   0  0  0  0  0  0
    2.3535    2.8213    4.0161 C   0  0  0  0  0  0
    2.3270    3.3338    5.3270 N   0  0  0  0  0  0
    2.5123    4.6013    5.7537 C   0  0  0  0  0  0
    2.7839    5.5563    5.0227 O   0  0  0  0  0  0
    2.3846    4.7897    7.2775 C   0  0  0  0  0  0
    1.8163    6.1145    7.7444 C   0  0  0  0  0  0
    3.2947    5.8265    7.9050 C   0  0  0  0  0  0
    2.2316    3.6033    2.8553 C   0  0  0  0  0  0
    2.2571    2.9978    1.6019 C   0  0  0  0  0  0
    0.3234   -0.8406    0.1626 N   0  0  0  0  0  0
   -1.4901   -6.2097   -1.9965 H   0  0  0  0  0  0
   -2.8462   -6.9112   -1.0336 H   0  0  0  0  0  0
   -1.1468   -7.2560   -0.5663 H   0  0  0  0  0  0
   -2.4575   -3.9515   -1.6329 H   0  0  0  0  0  0
   -3.7739   -4.6615   -0.6644 H   0  0  0  0  0  0
   -3.4684   -2.2738   -0.0231 H   0  0  0  0  0  0
   -3.1182   -3.2741    1.3298 H   0  0  0  0  0  0
    0.5346   -3.0887    1.0832 H   0  0  0  0  0  0
   -0.7741   -3.7561    1.9830 H   0  0  0  0  0  0
   -0.0748   -4.4397   -0.9696 H   0  0  0  0  0  0
    0.2193   -5.4817    0.4458 H   0  0  0  0  0  0
   -2.9547   -0.4159   -0.6116 H   0  0  0  0  0  0
   -3.2903    1.7166   -1.4931 H   0  0  0  0  0  0
    0.1496    3.6450   -1.7592 H   0  0  0  0  0  0
    0.7385    6.2492   -2.7594 H   0  0  0  0  0  0
   -0.6023    7.2963   -2.3316 H   0  0  0  0  0  0
   -0.4490    6.6913   -3.9717 H   0  0  0  0  0  0
   -3.0691    5.9152   -3.0890 H   0  0  0  0  0  0
    2.6112   -0.2433    2.5737 H   0  0  0  0  0  0
    2.5653    0.8161    4.7872 H   0  0  0  0  0  0
    2.2054    2.6360    6.0461 H   0  0  0  0  0  0
    2.1470    3.8920    7.8506 H   0  0  0  0  0  0
    1.4970    6.8586    7.0126 H   0  0  0  0  0  0
    1.1794    6.1154    8.6294 H   0  0  0  0  0  0
    4.0110    6.3699    7.2865 H   0  0  0  0  0  0
    3.6882    5.6265    8.9020 H   0  0  0  0  0  0
    2.1026    4.6732    2.8960 H   0  0  0  0  0  0
    2.1626    3.6040    0.7125 H   0  0  0  0  0  0
    0.2579    2.1943   -1.0445 H   0  0  0  0  0  0
   -2.1426   -5.5659    0.8405 H   0  0  0  0  0  0
  1  2  1  0  0  0
  1 34  1  0  0  0
  1 35  1  0  0  0
  1 36  1  0  0  0
  2  3  1  0  0  0
  2  7  1  0  0  0
  2 63  1  0  0  0
  3  4  1  0  0  0
  3 37  1  0  0  0
  3 38  1  0  0  0
  4  5  1  0  0  0
  4 39  1  0  0  0
  4 40  1  0  0  0
  5  6  1  0  0  0
  5  8  1  0  0  0
  6  7  1  0  0  0
  6 41  1  0  0  0
  6 42  1  0  0  0
  7 43  1  0  0  0
  7 44  1  0  0  0
  8  9  2  0  0  0
  8 33  1  0  0  0
  9 10  1  0  0  0
  9 45  1  0  0  0
 10 11  1  0  0  0
 10 18  2  0  0  0
 11 12  1  0  0  0
 11 46  1  0  0  0
 12 13  1  0  0  0
 12 17  2  0  0  0
 13 14  2  0  0  0
 13 47  1  0  0  0
 14 15  1  0  0  0
 14 16  1  0  0  0
 15 48  1  0  0  0
 15 49  1  0  0  0
 15 50  1  0  0  0
 16 17  1  0  0  0
 16 51  1  0  0  0
 18 19  1  0  0  0
 18 62  1  0  0  0
 19 20  1  0  0  0
 19 33  2  0  0  0
 20 21  1  0  0  0
 21 22  2  0  0  0
 21 32  1  0  0  0
 22 23  1  0  0  0
 22 52  1  0  0  0
 23 24  2  0  0  0
 23 53  1  0  0  0
 24 25  1  0  0  0
 24 31  1  0  0  0
 25 26  1  0  0  0
 25 54  1  0  0  0
 26 27  2  0  0  0
 26 28  1  0  0  0
 28 29  1  0  0  0
 28 30  1  0  0  0
 28 55  1  0  0  0
 29 30  1  0  0  0
 29 56  1  0  0  0
 29 57  1  0  0  0
 30 58  1  0  0  0
 30 59  1  0  0  0
 31 32  2  0  0  0
 31 60  1  0  0  0
 32 61  1  0  0  0
M  CHG  2   2   1  18   1
M  END
> <chembl_id>
CHEMBL572878

> <chembl_pref_name>
TOZASERTIB

> <s_m_source_file>
sdf/actives_sanitized.sdf

> <i_m_source_file_index>
21

> <i_lp_mmshare_version>
49012

> <i_m_ct_stereo_status>
1

> <i_f3d_flags>
0

> <s_epik_input>
W0NIM11OMVtDSDJdW0NIMl1OKFtDSDJdW0NIMl0xKWMyW2NIXWMoW05IXWMzW2NIXWMoW0NIM10pW25IXW4zKW5jKG4yKVNjNFtjSF1bY0hdYyhbY0hdW2NIXTQpW05IXUMoPU8pW0NIXTVbQ0gyXVtDSDJdNQ==

> <s_epik_cmdline>
J2VwaWtfcHl0aG9uJywgJy1waHQnLCAnMC41JywgJy1waCcsICc3LjUnLCAnLW50JywgJy1tYScsICcyMDAnLCAnLWltYWUnLCAnPGluZmlsZS5tYWU+JywgJy1vbWFlJywgJzxvdXRmaWxlLm1hZT4n

> <r_lp_tautomer_probability>
0.000238314207161384

> <r_epik_Ionization_Penalty>
  3.9857

> <r_epik_Ionization_Penalty_Charging>
  3.9847

> <r_epik_Ionization_Penalty_Neutral>
  0.0009

> <r_epik_State_Penalty>
  0.4626

> <r_epik_Charging_Adjusted_Penalty>
4.44733820224536

> <i_epik_Tot_Q>
2

> <i_epik_Tot_abs_Q>
2

> <s_lp_Force_Field>
OPLS3e

> <r_lp_Energy>
78.740429

> <b_lp_Chiralities_Consistent>
1

> <s_lp_Variant>
sdf/actives_sanitized.sdf:21-2

$$$$
sdf/actives_sanitized.sdf:22
                    3D
 Schrodinger Suite 2020-1.
 58 61  0  0  1  0            999 V2000
   -2.2148    6.9232    0.0122 C   0  0  0  0  0  0
   -3.3253    7.9890    0.1244 C   0  0  0  0  0  0
   -3.9650    7.8894    1.3879 O   0  0  0  0  0  0
   -4.5597    6.6142    1.5776 C   0  0  0  0  0  0
   -3.4829    5.5108    1.4995 C   0  0  0  0  0  0
   -2.7023    5.5512    0.2483 N   0  0  0  0  0  0
   -1.9446    4.4355   -0.1098 C   0  0  0  0  0  0
   -0.5849    4.5295   -0.4452 C   0  0  0  0  0  0
    0.1735    3.4021   -0.8127 C   0  0  0  0  0  0
    1.4934    3.4910   -1.2217 O   0  0  0  0  0  0
    2.1638    4.7466   -1.2092 C   0  0  0  0  0  0
   -2.5451    3.1732   -0.1639 C   0  0  0  0  0  0
   -1.8121    2.0450   -0.5178 C   0  0  0  0  0  0
   -0.4520    2.1387   -0.8165 C   0  0  0  0  0  0
    0.1940    0.9336   -1.1533 N   0  0  0  0  0  0
    1.5138    0.4854   -0.9933 C   0  0  0  0  0  0
    1.8541   -0.5988   -1.7359 N   0  0  0  0  0  0
    2.3317    1.0968   -0.0945 N   0  0  0  0  0  0
    3.5861    0.5943    0.0280 C   0  0  0  0  0  0
    4.0299   -0.5046   -0.7106 C   0  0  0  0  0  0
    5.6466   -1.0893   -0.5011 Cl  0  0  0  0  0  0
    3.1172   -1.0909   -1.6031 C   0  0  0  0  0  0
    3.5180   -2.2024   -2.3670 N   0  0  0  0  0  0
    3.0314   -2.8361   -3.5328 C   0  0  0  0  0  0
    2.0631   -2.2058   -4.3323 C   0  0  0  0  0  0
    1.5603   -2.8167   -5.4761 C   0  0  0  0  0  0
    2.0226   -4.0703   -5.8514 C   0  0  0  0  0  0
    2.9942   -4.7072   -5.0866 C   0  0  0  0  0  0
    3.5217   -4.1132   -3.9240 C   0  0  0  0  0  0
    4.6048   -4.8539   -3.1498 C   0  0  0  0  0  0
    5.4631   -4.2466   -2.5056 O   0  0  0  0  0  0
    4.5527   -6.1990   -3.2021 N   0  0  0  0  0  0
    5.4745   -7.1061   -2.5267 C   0  0  0  0  0  0
   -1.7992    6.9807   -0.9948 H   0  0  0  0  0  0
   -1.4002    7.1476    0.7028 H   0  0  0  0  0  0
   -2.8943    8.9859    0.0300 H   0  0  0  0  0  0
   -4.0518    7.8864   -0.6842 H   0  0  0  0  0  0
   -5.0396    6.5969    2.5562 H   0  0  0  0  0  0
   -5.3489    6.4448    0.8421 H   0  0  0  0  0  0
   -2.8017    5.5819    2.3490 H   0  0  0  0  0  0
   -3.9901    4.5515    1.5974 H   0  0  0  0  0  0
   -0.1135    5.4990   -0.4260 H   0  0  0  0  0  0
    3.1956    4.6047   -1.5305 H   0  0  0  0  0  0
    2.1882    5.1784   -0.2076 H   0  0  0  0  0  0
    1.6986    5.4545   -1.8967 H   0  0  0  0  0  0
   -3.5954    3.0533    0.0583 H   0  0  0  0  0  0
   -2.3126    1.0872   -0.5442 H   0  0  0  0  0  0
   -0.4062    0.2601   -1.6064 H   0  0  0  0  0  0
    4.2366    1.0894    0.7340 H   0  0  0  0  0  0
    4.3714   -2.6232   -2.0263 H   0  0  0  0  0  0
    1.6889   -1.2225   -4.0995 H   0  0  0  0  0  0
    0.8157   -2.3129   -6.0747 H   0  0  0  0  0  0
    1.6369   -4.5452   -6.7415 H   0  0  0  0  0  0
    3.3425   -5.6724   -5.4261 H   0  0  0  0  0  0
    3.8259   -6.6306   -3.7539 H   0  0  0  0  0  0
    6.1375   -7.5718   -3.2557 H   0  0  0  0  0  0
    4.9123   -7.8955   -2.0280 H   0  0  0  0  0  0
    6.0889   -6.6088   -1.7749 H   0  0  0  0  0  0
  1  2  1  0  0  0
  1  6  1  0  0  0
  1 34  1  0  0  0
  1 35  1  0  0  0
  2  3  1  0  0  0
  2 36  1  0  0  0
  2 37  1  0  0  0
  3  4  1  0  0  0
  4  5  1  0  0  0
  4 38  1  0  0  0
  4 39  1  0  0  0
  5  6  1  0  0  0
  5 40  1  0  0  0
  5 41  1  0  0  0
  6  7  1  0  0  0
  7  8  2  0  0  0
  7 12  1  0  0  0
  8  9  1  0  0  0
  8 42  1  0  0  0
  9 10  1  0  0  0
  9 14  2  0  0  0
 10 11  1  0  0  0
 11 43  1  0  0  0
 11 44  1  0  0  0
 11 45  1  0  0  0
 12 13  2  0  0  0
 12 46  1  0  0  0
 13 14  1  0  0  0
 13 47  1  0  0  0
 14 15  1  0  0  0
 15 16  1  0  0  0
 15 48  1  0  0  0
 16 17  2  0  0  0
 16 18  1  0  0  0
 17 22  1  0  0  0
 18 19  2  0  0  0
 19 20  1  0  0  0
 19 49  1  0  0  0
 20 21  1  0  0  0
 20 22  2  0  0  0
 22 23  1  0  0  0
 23 24  1  0  0  0
 23 50  1  0  0  0
 24 25  2  0  0  0
 24 29  1  0  0  0
 25 26  1  0  0  0
 25 51  1  0  0  0
 26 27  2  0  0  0
 26 52  1  0  0  0
 27 28  1  0  0  0
 27 53  1  0  0  0
 28 29  2  0  0  0
 28 54  1  0  0  0
 29 30  1  0  0  0
 30 31  2  0  0  0
 30 32  1  0  0  0
 32 33  1  0  0  0
 32 55  1  0  0  0
 33 56  1  0  0  0
 33 57  1  0  0  0
 33 58  1  0  0  0
M  END
> <chembl_id>
CHEMBL458997

> <chembl_pref_name>
None

> <s_m_source_file>
sdf/actives_sanitized.sdf

> <i_m_source_file_index>
22

> <i_lp_mmshare_version>
49012

> <i_m_ct_stereo_status>
1

> <i_f3d_flags>
0

> <s_epik_input>
W0NIMl0xW0NIMl1PW0NIMl1bQ0gyXU4xYzJbY0hdYyhPW0NIM10pYyhbY0hdW2NIXTIpW05IXWMzbmMoYyhDbClbY0hdbjMpW05IXWM0W2NIXVtjSF1bY0hdW2NIXWM0Qyg9TylbTkhdW0NIM10=

> <s_epik_cmdline>
J2VwaWtfcHl0aG9uJywgJy1waHQnLCAnMC41JywgJy1waCcsICc3LjUnLCAnLW50JywgJy1tYScsICcyMDAnLCAnLWltYWUnLCAnPGluZmlsZS5tYWU+JywgJy1vbWFlJywgJzxvdXRmaWxlLm1hZT4n

> <r_lp_tautomer_probability>
1

> <r_epik_Ionization_Penalty>
  0.0001

> <r_epik_Ionization_Penalty_Charging>
  0.0000

> <r_epik_Ionization_Penalty_Neutral>
  0.0001

> <r_epik_State_Penalty>
 -0.0000

> <r_epik_Charging_Adjusted_Penalty>
0

> <i_epik_Tot_Q>
0

> <i_epik_Tot_abs_Q>
0

> <s_lp_Force_Field>
OPLS3e

> <r_lp_Energy>
59.062318

> <b_lp_Chiralities_Consistent>
1

> <s_lp_Variant>
sdf/actives_sanitized.sdf:22-1

$$$$
sdf/actives_sanitized.sdf:23
                    3D
 Schrodinger Suite 2020-1.
 44 47  0  0  1  0            999 V2000
    4.1236   -2.7507   -0.0685 Cl  0  0  0  0  0  0
    2.1455    1.2618    0.1226 N   0  0  0  0  0  0
    5.9142    4.0040    0.0158 N   0  0  0  0  0  0
    2.0122   -1.1422    0.1142 N   0  0  0  0  0  0
    4.7427    6.0070   -0.6697 N   0  0  0  0  0  0
    0.0490    0.1164    0.2696 N   0  0  0  0  0  0
   -3.8961    4.0983   -1.0008 N   0  3  0  0  0  0
    4.2306    2.4821   -0.0649 C   0  0  0  0  0  0
    3.7165    3.7762   -0.4565 C   0  0  0  0  0  0
    3.4987    1.1826    0.0174 C   0  0  0  0  0  0
    4.8002    4.7014   -0.3878 C   0  0  0  0  0  0
    5.5784    2.6866    0.2010 C   0  0  0  0  0  0
    1.4499    0.0921    0.1672 C   0  0  0  0  0  0
    4.1561   -0.0515   -0.0483 C   0  0  0  0  0  0
    3.3661   -1.2028    0.0070 C   0  0  0  0  0  0
    2.4703    4.2918   -0.8651 C   0  0  0  0  0  0
   -0.7220    1.3501    0.1054 C   0  0  2  0  0  0
    2.3814    5.6524   -1.1657 C   0  0  0  0  0  0
    3.5186    6.4536   -1.0563 C   0  0  0  0  0  0
   -2.0750    1.1952    0.8344 C   0  0  0  0  0  0
   -0.9208    1.6330   -1.4031 C   0  0  0  0  0  0
   -3.1556    2.7614   -0.8798 C   0  0  2  0  0  0
   -2.9762    2.4278    0.6185 C   0  0  0  0  0  0
   -1.8093    2.8720   -1.6296 C   0  0  0  0  0  0
    6.8484    4.3584    0.1621 H   0  0  0  0  0  0
   -0.4328   -0.7593    0.1239 H   0  0  0  0  0  0
   -3.3495    4.8368   -0.5811 H   0  0  0  0  0  0
   -4.7887    4.0459   -0.5308 H   0  0  0  0  0  0
    6.3412    1.9904    0.5184 H   0  0  0  0  0  0
    5.2299   -0.1178   -0.1431 H   0  0  0  0  0  0
    1.5999    3.6585   -0.9475 H   0  0  0  0  0  0
   -0.1660    2.1799    0.5454 H   0  0  0  0  0  0
    1.4415    6.0815   -1.4809 H   0  0  0  0  0  0
    3.4586    7.5067   -1.2892 H   0  0  0  0  0  0
   -2.5954    0.3019    0.4835 H   0  0  0  0  0  0
   -1.9094    1.0509    1.9035 H   0  0  0  0  0  0
    0.0436    1.7889   -1.8895 H   0  0  0  0  0  0
   -1.3719    0.7687   -1.8946 H   0  0  0  0  0  0
   -3.7507    1.9731   -1.3445 H   0  0  0  0  0  0
   -3.9417    2.3275    1.1167 H   0  0  0  0  0  0
   -2.5003    3.2763    1.1142 H   0  0  0  0  0  0
   -1.2664    3.7431   -1.2564 H   0  0  0  0  0  0
   -1.9656    3.0820   -2.6888 H   0  0  0  0  0  0
   -4.0533    4.3222   -1.9732 H   0  0  0  0  0  0
  1 15  1  0  0  0
  2 10  2  0  0  0
  2 13  1  0  0  0
  3 11  1  0  0  0
  3 12  1  0  0  0
  3 25  1  0  0  0
  4 13  2  0  0  0
  4 15  1  0  0  0
  5 11  2  0  0  0
  5 19  1  0  0  0
  6 13  1  0  0  0
  6 17  1  0  0  0
  6 26  1  0  0  0
  7 22  1  0  0  0
  7 27  1  0  0  0
  7 28  1  0  0  0
  7 44  1  0  0  0
  8  9  1  0  0  0
  8 10  1  0  0  0
  8 12  2  0  0  0
  9 11  1  0  0  0
  9 16  2  0  0  0
 10 14  1  0  0  0
 12 29  1  0  0  0
 14 15  2  0  0  0
 14 30  1  0  0  0
 16 18  1  0  0  0
 16 31  1  0  0  0
 17 20  1  0  0  0
 17 21  1  0  0  0
 17 32  1  0  0  0
 18 19  2  0  0  0
 18 33  1  0  0  0
 19 34  1  0  0  0
 20 23  1  0  0  0
 20 35  1  0  0  0
 20 36  1  0  0  0
 21 24  1  0  0  0
 21 37  1  0  0  0
 21 38  1  0  0  0
 22 23  1  0  0  0
 22 24  1  0  0  0
 22 39  1  0  0  0
 23 40  1  0  0  0
 23 41  1  0  0  0
 24 42  1  0  0  0
 24 43  1  0  0  0
M  CHG  1   7   1
M  END
> <chembl_id>
CHEMBL1973720

> <chembl_pref_name>
None

> <s_m_source_file>
sdf/actives_sanitized.sdf

> <i_m_source_file_index>
23

> <i_lp_mmshare_version>
49012

> <i_m_ct_stereo_status>
1

> <i_f3d_flags>
0

> <s_epik_input>
W0NIMl0xW0NIMl1bQ0BIXShbTkgyXSlbQ0gyXVtDSDJdW0NASF0xW05IXWMobmMoQ2wpW2NIXTIpbmMyLWMzW2NIXVtuSF1jKGMzNCluW2NIXVtjSF1bY0hdNA==

> <s_epik_cmdline>
J2VwaWtfcHl0aG9uJywgJy1waHQnLCAnMC41JywgJy1waCcsICc3LjUnLCAnLW50JywgJy1tYScsICcyMDAnLCAnLWltYWUnLCAnPGluZmlsZS5tYWU+JywgJy1vbWFlJywgJzxvdXRmaWxlLm1hZT4n

> <r_lp_tautomer_probability>
1

> <r_epik_Ionization_Penalty>
  0.0011

> <r_epik_Ionization_Penalty_Charging>
  0.0007

> <r_epik_Ionization_Penalty_Neutral>
  0.0003

> <r_epik_State_Penalty>
 -0.0000

> <r_epik_Charging_Adjusted_Penalty>
0.000737991163403411

> <i_epik_Tot_Q>
1

> <i_epik_Tot_abs_Q>
1

> <s_lp_Force_Field>
OPLS3e

> <r_lp_Energy>
44.077715

> <b_lp_Chiralities_Consistent>
1

> <s_lp_Variant>
sdf/actives_sanitized.sdf:23-1

$$$$
sdf/actives_sanitized.sdf:24
                    3D
 Schrodinger Suite 2020-1.
 49 53  0  0  1  0            999 V2000
    1.4351   -1.6401    1.4352 C   0  0  0  0  0  0
    0.2775   -0.7832    0.9405 C   0  0  0  0  0  0
   -0.9955   -0.9845    1.4845 C   0  0  0  0  0  0
   -2.0711   -0.1955    1.0799 C   0  0  0  0  0  0
   -1.8819    0.8048    0.1290 C   0  0  0  0  0  0
   -0.6174    1.0148   -0.4180 C   0  0  0  0  0  0
    0.4683    0.2271   -0.0197 C   0  0  0  0  0  0
    1.7967    0.4912   -0.6462 C   0  0  0  0  0  0
    2.6077   -0.2795   -1.4888 C   0  0  0  0  0  0
    3.7347    0.3714   -1.7350 N   0  0  0  0  0  0
    3.7084    1.5797   -1.0704 N   0  0  0  0  0  0
    2.5305    1.6407   -0.4447 N   0  0  0  0  0  0
    2.2394    2.7674    0.4398 C   0  0  0  0  0  0
    2.2773    2.3924    1.9161 C   0  0  0  0  0  0
    3.4942    2.0632    2.5200 C   0  0  0  0  0  0
    3.5269    1.6964    3.8626 C   0  0  0  0  0  0
    2.3433    1.6602    4.5970 C   0  0  0  0  0  0
    1.1272    1.9893    4.0019 C   0  0  0  0  0  0
    1.0944    2.3585    2.6601 C   0  0  0  0  0  0
    2.3443   -1.6356   -2.0663 C   0  0  0  0  0  0
    3.3998   -2.5306   -2.2834 C   0  0  0  0  0  0
    3.2025   -3.8103   -2.8050 C   0  0  0  0  0  0
    1.8875   -4.1702   -3.1097 C   0  0  0  0  0  0
    1.3348   -5.3264   -3.6251 N   0  0  0  0  0  0
   -0.0014   -5.2313   -3.7591 N   0  0  0  0  0  0
   -0.3411   -4.0391   -3.3429 C   0  0  0  0  0  0
   -1.6303   -3.5887   -3.3345 N   0  0  0  0  0  0
    0.7967   -3.2907   -2.9093 C   0  0  0  0  0  0
    1.0337   -2.0108   -2.3856 C   0  0  0  0  0  0
    2.3131   -1.0217    1.6258 H   0  0  0  0  0  0
    1.7048   -2.3889    0.6906 H   0  0  0  0  0  0
    1.1966   -2.1430    2.3730 H   0  0  0  0  0  0
   -1.1554   -1.7524    2.2274 H   0  0  0  0  0  0
   -3.0504   -0.3585    1.5053 H   0  0  0  0  0  0
   -2.7147    1.4165   -0.1849 H   0  0  0  0  0  0
   -0.4839    1.7916   -1.1572 H   0  0  0  0  0  0
    2.9583    3.5692    0.2574 H   0  0  0  0  0  0
    1.2673    3.1754    0.1599 H   0  0  0  0  0  0
    4.4110    2.0850    1.9481 H   0  0  0  0  0  0
    4.4649    1.4383    4.3317 H   0  0  0  0  0  0
    2.3687    1.3733    5.6379 H   0  0  0  0  0  0
    0.2140    1.9558    4.5776 H   0  0  0  0  0  0
    0.1486    2.6038    2.1989 H   0  0  0  0  0  0
    4.4085   -2.2340   -2.0340 H   0  0  0  0  0  0
    4.0325   -4.4839   -2.9597 H   0  0  0  0  0  0
    1.8139   -6.1748   -3.8906 H   0  0  0  0  0  0
   -1.8377   -2.6020   -3.2821 H   0  0  0  0  0  0
   -2.3914   -4.1904   -3.6153 H   0  0  0  0  0  0
    0.2101   -1.3291   -2.2352 H   0  0  0  0  0  0
  1  2  1  0  0  0
  1 30  1  0  0  0
  1 31  1  0  0  0
  1 32  1  0  0  0
  2  3  2  0  0  0
  2  7  1  0  0  0
  3  4  1  0  0  0
  3 33  1  0  0  0
  4  5  2  0  0  0
  4 34  1  0  0  0
  5  6  1  0  0  0
  5 35  1  0  0  0
  6  7  2  0  0  0
  6 36  1  0  0  0
  7  8  1  0  0  0
  8  9  2  0  0  0
  8 12  1  0  0  0
  9 10  1  0  0  0
  9 20  1  0  0  0
 10 11  2  0  0  0
 11 12  1  0  0  0
 12 13  1  0  0  0
 13 14  1  0  0  0
 13 37  1  0  0  0
 13 38  1  0  0  0
 14 15  2  0  0  0
 14 19  1  0  0  0
 15 16  1  0  0  0
 15 39  1  0  0  0
 16 17  2  0  0  0
 16 40  1  0  0  0
 17 18  1  0  0  0
 17 41  1  0  0  0
 18 19  2  0  0  0
 18 42  1  0  0  0
 19 43  1  0  0  0
 20 21  2  0  0  0
 20 29  1  0  0  0
 21 22  1  0  0  0
 21 44  1  0  0  0
 22 23  2  0  0  0
 22 45  1  0  0  0
 23 24  1  0  0  0
 23 28  1  0  0  0
 24 25  1  0  0  0
 24 46  1  0  0  0
 25 26  2  0  0  0
 26 27  1  0  0  0
 26 28  1  0  0  0
 27 47  1  0  0  0
 27 48  1  0  0  0
 28 29  2  0  0  0
 29 49  1  0  0  0
M  END
> <chembl_id>
CHEMBL2000029

> <chembl_pref_name>
None

> <s_m_source_file>
sdf/actives_sanitized.sdf

> <i_m_source_file_index>
24

> <i_lp_mmshare_version>
49012

> <i_m_ct_stereo_status>
1

> <i_f3d_flags>
0

> <s_epik_input>
W0NIM11jMVtjSF1bY0hdW2NIXVtjSF1jMS1jMmMoLWMoW2NIXVtjSF0zKVtjSF1jKGMzNCljKFtOSDJdKW5bbkhdNClubm4yW0NIMl1jNVtjSF1bY0hdW2NIXVtjSF1bY0hdNQ==

> <s_epik_cmdline>
J2VwaWtfcHl0aG9uJywgJy1waHQnLCAnMC41JywgJy1waCcsICc3LjUnLCAnLW50JywgJy1tYScsICcyMDAnLCAnLWltYWUnLCAnPGluZmlsZS5tYWU+JywgJy1vbWFlJywgJzxvdXRmaWxlLm1hZT4n

> <r_lp_tautomer_probability>
1

> <r_epik_Ionization_Penalty>
  0.0003

> <r_epik_Ionization_Penalty_Charging>
  0.0000

> <r_epik_Ionization_Penalty_Neutral>
  0.0003

> <r_epik_State_Penalty>
 -0.0000

> <r_epik_Charging_Adjusted_Penalty>
0

> <i_epik_Tot_Q>
0

> <i_epik_Tot_abs_Q>
0

> <s_lp_Force_Field>
OPLS3e

> <r_lp_Energy>
32.181272

> <b_lp_Chiralities_Consistent>
1

> <s_lp_Variant>
sdf/actives_sanitized.sdf:24-1

$$$$
sdf/actives_sanitized.sdf:25
                    3D
 Schrodinger Suite 2020-1.
 33 36  0  0  1  0            999 V2000
   -4.9218   -4.1918    1.3841 N   0  0  0  0  0  0
   -3.5888   -4.3811    1.2342 C   0  0  0  0  0  0
   -2.9319   -3.7182    0.0128 C   0  0  0  0  0  0
   -2.9361   -5.0809    2.0057 O   0  0  0  0  0  0
   -5.6753   -2.2318    0.0226 C   0  0  0  0  0  0
   -5.9148   -3.4609    0.6929 C   0  0  0  0  0  0
   -7.2026   -4.0074    0.6323 C   0  0  0  0  0  0
   -8.2389   -3.3659   -0.0408 C   0  0  0  0  0  0
   -8.0020   -2.1556   -0.6807 C   0  0  0  0  0  0
   -6.7288   -1.5950   -0.6489 C   0  0  0  0  0  0
   -4.1252   -0.2245   -0.0003 N   0  0  0  0  0  0
   -3.1172   -2.2222    0.0139 C   0  0  0  0  0  0
   -4.3345   -1.5836    0.0099 C   0  0  0  0  0  0
   -2.1047   -1.2007    0.0081 C   0  0  0  0  0  0
   -2.7764    0.0542    0.0004 C   0  0  0  0  0  0
   -2.0892    1.2697   -0.0046 C   0  0  0  0  0  0
   -0.6962    1.2096   -0.0036 C   0  0  0  0  0  0
    0.0101   -0.0012    0.0017 C   0  0  0  0  0  0
   -0.7007   -1.2111    0.0079 C   0  0  0  0  0  0
    1.4951   -0.0049    0.0004 N   0  3  0  0  0  0
    2.0811   -1.0840    0.0005 O   0  0  0  0  0  0
    2.0877    1.0709   -0.0014 O   0  5  0  0  0  0
   -5.2912   -4.7530    2.1376 H   0  0  0  0  0  0
   -1.8733   -3.9810   -0.0039 H   0  0  0  0  0  0
   -3.3554   -4.1605   -0.8899 H   0  0  0  0  0  0
   -7.4088   -4.9495    1.1200 H   0  0  0  0  0  0
   -9.2235   -3.8093   -0.0673 H   0  0  0  0  0  0
   -8.8020   -1.6546   -1.2058 H   0  0  0  0  0  0
   -6.5635   -0.6583   -1.1618 H   0  0  0  0  0  0
   -4.8876    0.4375   -0.0015 H   0  0  0  0  0  0
   -2.6050    2.2189   -0.0097 H   0  0  0  0  0  0
   -0.1557    2.1452   -0.0075 H   0  0  0  0  0  0
   -0.1746   -2.1545    0.0132 H   0  0  0  0  0  0
  1  2  1  0  0  0
  1  6  1  0  0  0
  1 23  1  0  0  0
  2  3  1  0  0  0
  2  4  2  0  0  0
  3 12  1  0  0  0
  3 24  1  0  0  0
  3 25  1  0  0  0
  5  6  2  0  0  0
  5 10  1  0  0  0
  5 13  1  0  0  0
  6  7  1  0  0  0
  7  8  2  0  0  0
  7 26  1  0  0  0
  8  9  1  0  0  0
  8 27  1  0  0  0
  9 10  2  0  0  0
  9 28  1  0  0  0
 10 29  1  0  0  0
 11 13  1  0  0  0
 11 15  1  0  0  0
 11 30  1  0  0  0
 12 13  2  0  0  0
 12 14  1  0  0  0
 14 15  2  0  0  0
 14 19  1  0  0  0
 15 16  1  0  0  0
 16 17  2  0  0  0
 16 31  1  0  0  0
 17 18  1  0  0  0
 17 32  1  0  0  0
 18 19  2  0  0  0
 18 20  1  0  0  0
 19 33  1  0  0  0
 20 21  2  0  0  0
 20 22  1  0  0  0
M  CHG  2  20   1  22  -1
M  END
> <chembl_id>
CHEMBL50894

> <chembl_pref_name>
ALSTERPAULLONE

> <s_m_source_file>
sdf/actives_sanitized.sdf

> <i_m_source_file_index>
25

> <i_lp_mmshare_version>
49012

> <i_m_ct_stereo_status>
1

> <i_f3d_flags>
0

> <s_epik_input>
W2NIXTFbY0hdW2NIXVtjSF1jKGMxMilbTkhdQyg9TylbQ0gyXWMzYzJbbkhdYzRjM1tjSF1jKFtOK10oPU8pW08tXSlbY0hdW2NIXTQ=

> <s_epik_cmdline>
J2VwaWtfcHl0aG9uJywgJy1waHQnLCAnMC41JywgJy1waCcsICc3LjUnLCAnLW50JywgJy1tYScsICcyMDAnLCAnLWltYWUnLCAnPGluZmlsZS5tYWU+JywgJy1vbWFlJywgJzxvdXRmaWxlLm1hZT4n

> <r_lp_tautomer_probability>
1

> <r_epik_Ionization_Penalty>
  0.0000

> <r_epik_Ionization_Penalty_Charging>
  0.0000

> <r_epik_Ionization_Penalty_Neutral>
  0.0000

> <r_epik_State_Penalty>
 -0.0000

> <r_epik_Charging_Adjusted_Penalty>
0

> <i_epik_Tot_Q>
0

> <i_epik_Tot_abs_Q>
2

> <s_lp_Force_Field>
OPLS3e

> <r_lp_Energy>
45.311103

> <b_lp_Chiralities_Consistent>
1

> <s_lp_Variant>
sdf/actives_sanitized.sdf:25-1

$$$$
sdf/actives_sanitized.sdf:26
                    3D
 Schrodinger Suite 2020-1.
 60 64  0  0  1  0            999 V2000
   -2.5313   -0.8492    0.5754 S   0  0  0  0  0  0
   14.0228   -3.9574   -3.7672 F   0  0  0  0  0  0
   12.3244   -3.6482   -5.0821 F   0  0  0  0  0  0
    6.0615   -1.4006   -2.3457 O   0  0  0  0  0  0
   12.5406   -2.3655   -3.2167 O   0  0  0  0  0  0
   -9.5492   -1.1334    1.7274 O   0  0  0  0  0  0
   -1.4604    3.3782   -0.6609 N   0  0  0  0  0  0
   -6.7637    0.8856    0.3537 N   0  0  0  0  0  0
    0.7677    2.7696   -0.8676 N   0  0  0  0  0  0
   -6.8387    2.1396    0.8178 N   0  0  0  0  0  0
    5.6083   -0.4684   -0.3024 N   0  0  0  0  0  0
    7.7103   -0.8627   -0.8516 N   0  0  0  0  0  0
   -0.8698    1.0787   -0.1414 C   0  0  0  0  0  0
   -2.2635    0.8257    0.1060 C   0  0  0  0  0  0
   -0.0564   -0.0938    0.0677 C   0  0  0  0  0  0
   -3.2325    1.8466   -0.0236 C   0  0  0  0  0  0
   -0.5375    2.3966   -0.5449 C   0  0  0  0  0  0
   -4.6952    1.6614    0.2155 C   0  0  0  0  0  0
    1.4236   -0.1972   -0.0583 C   0  0  0  0  0  0
   -0.8334   -1.1768    0.4246 C   0  0  0  0  0  0
   -2.7552    3.1015   -0.4000 C   0  0  0  0  0  0
   -5.4885    0.5462   -0.0178 C   0  0  0  0  0  0
   -5.6115    2.5986    0.7245 C   0  0  0  0  0  0
    2.2532    0.5425    0.7864 C   0  0  0  0  0  0
    1.9823   -1.0615   -1.0014 C   0  0  0  0  0  0
    4.2016   -0.4165   -0.2783 C   0  0  0  0  0  0
    3.6362    0.4319    0.6765 C   0  0  0  0  0  0
    3.3653   -1.1739   -1.1140 C   0  0  0  0  0  0
   -7.9579    0.0452    0.3214 C   0  0  0  0  0  0
    6.4274   -0.9542   -1.2576 C   0  0  0  0  0  0
    8.8769   -1.2923   -1.5115 C   0  0  0  0  0  0
   -8.4094   -0.3013    1.7530 C   0  0  0  0  0  0
   11.3071   -2.0561   -2.6799 C   0  0  0  0  0  0
   10.0742   -0.7090   -1.0931 C   0  0  0  0  0  0
    8.8985   -2.2732   -2.5146 C   0  0  0  0  0  0
   11.2791   -1.0843   -1.6802 C   0  0  0  0  0  0
   10.1059   -2.6459   -3.0987 C   0  0  0  0  0  0
   12.7284   -3.6471   -3.8113 C   0  0  0  0  0  0
   -9.8096   -1.3235    2.6319 H   0  0  0  0  0  0
    1.5079    2.0833   -0.8233 H   0  0  0  0  0  0
    0.9518    3.7167   -1.1667 H   0  0  0  0  0  0
    6.0545   -0.0422    0.4963 H   0  0  0  0  0  0
    7.8749   -0.3659    0.0114 H   0  0  0  0  0  0
   -0.4783   -2.1753    0.6354 H   0  0  0  0  0  0
   -3.4331    3.9341   -0.5204 H   0  0  0  0  0  0
   -5.2676   -0.4353   -0.4106 H   0  0  0  0  0  0
   -5.3731    3.6068    1.0301 H   0  0  0  0  0  0
    1.8279    1.2028    1.5286 H   0  0  0  0  0  0
    1.3466   -1.6493   -1.6479 H   0  0  0  0  0  0
    4.2636    1.0125    1.3379 H   0  0  0  0  0  0
    3.7571   -1.8649   -1.8433 H   0  0  0  0  0  0
   -8.7228    0.6140   -0.2108 H   0  0  0  0  0  0
   -7.6979   -0.8559   -0.2366 H   0  0  0  0  0  0
   -8.6166    0.6026    2.3273 H   0  0  0  0  0  0
   -7.6015   -0.7891    2.3005 H   0  0  0  0  0  0
   10.0789    0.0425   -0.3162 H   0  0  0  0  0  0
    7.9996   -2.7678   -2.8479 H   0  0  0  0  0  0
   12.1984   -0.6204   -1.3538 H   0  0  0  0  0  0
   10.0934   -3.3947   -3.8760 H   0  0  0  0  0  0
   12.2121   -4.4449   -3.2740 H   0  0  0  0  0  0
  1 14  1  0  0  0
  1 20  1  0  0  0
  2 38  1  0  0  0
  3 38  1  0  0  0
  4 30  2  0  0  0
  5 33  1  0  0  0
  5 38  1  0  0  0
  6 32  1  0  0  0
  6 39  1  0  0  0
  7 17  2  0  0  0
  7 21  1  0  0  0
  8 10  1  0  0  0
  8 22  1  0  0  0
  8 29  1  0  0  0
  9 17  1  0  0  0
  9 40  1  0  0  0
  9 41  1  0  0  0
 10 23  2  0  0  0
 11 26  1  0  0  0
 11 30  1  0  0  0
 11 42  1  0  0  0
 12 30  1  0  0  0
 12 31  1  0  0  0
 12 43  1  0  0  0
 13 14  2  0  0  0
 13 15  1  0  0  0
 13 17  1  0  0  0
 14 16  1  0  0  0
 15 19  1  0  0  0
 15 20  2  0  0  0
 16 18  1  0  0  0
 16 21  2  0  0  0
 18 22  2  0  0  0
 18 23  1  0  0  0
 19 24  2  0  0  0
 19 25  1  0  0  0
 20 44  1  0  0  0
 21 45  1  0  0  0
 22 46  1  0  0  0
 23 47  1  0  0  0
 24 27  1  0  0  0
 24 48  1  0  0  0
 25 28  2  0  0  0
 25 49  1  0  0  0
 26 27  2  0  0  0
 26 28  1  0  0  0
 27 50  1  0  0  0
 28 51  1  0  0  0
 29 32  1  0  0  0
 29 52  1  0  0  0
 29 53  1  0  0  0
 31 34  2  0  0  0
 31 35  1  0  0  0
 32 54  1  0  0  0
 32 55  1  0  0  0
 33 36  2  0  0  0
 33 37  1  0  0  0
 34 36  1  0  0  0
 34 56  1  0  0  0
 35 37  2  0  0  0
 35 57  1  0  0  0
 36 58  1  0  0  0
 37 59  1  0  0  0
 38 60  1  0  0  0
M  END
> <chembl_id>
CHEMBL1972220

> <chembl_pref_name>
None

> <s_m_source_file>
sdf/actives_sanitized.sdf

> <i_m_source_file_index>
26

> <i_lp_mmshare_version>
49012

> <i_m_ct_stereo_status>
1

> <i_f3d_flags>
0

> <s_epik_input>
W09IXVtDSDJdW0NIMl1uMW5bY0hdYyhbY0hdMSktYyhbY0hdbmMyW05IMl0pYyhjMjMpc1tjSF1jMy1jNFtjSF1bY0hdYyhbY0hdW2NIXTQpW05IXUMoPU8pW05IXWM1W2NIXVtjSF1jKE9bQ0hdKEYpRilbY0hdW2NIXTU=

> <s_epik_cmdline>
J2VwaWtfcHl0aG9uJywgJy1waHQnLCAnMC41JywgJy1waCcsICc3LjUnLCAnLW50JywgJy1tYScsICcyMDAnLCAnLWltYWUnLCAnPGluZmlsZS5tYWU+JywgJy1vbWFlJywgJzxvdXRmaWxlLm1hZT4n

> <r_lp_tautomer_probability>
1

> <r_epik_Ionization_Penalty>
  0.1174

> <r_epik_Ionization_Penalty_Charging>
  0.0000

> <r_epik_Ionization_Penalty_Neutral>
  0.1174

> <r_epik_State_Penalty>
  0.1069

> <r_epik_Charging_Adjusted_Penalty>
0.106864179686305

> <i_epik_Tot_Q>
0

> <i_epik_Tot_abs_Q>
0

> <s_lp_Force_Field>
OPLS3e

> <r_lp_Energy>
53.959735

> <b_lp_Chiralities_Consistent>
1

> <s_lp_Variant>
sdf/actives_sanitized.sdf:26-1

$$$$
sdf/actives_sanitized.sdf:27
                    3D
 Schrodinger Suite 2020-1.
 37 40  0  0  1  0            999 V2000
   -5.2034   -2.3716    0.0589 O   0  0  0  0  0  0
    5.8249   -0.2202   -0.0365 O   0  0  0  0  0  0
   -2.9306   -2.1299   -0.0024 N   0  0  0  0  0  0
   -6.2210    2.6399    0.8256 N   0  0  0  0  0  0
   -2.6557    0.0877    0.0376 C   0  0  0  0  0  0
   -1.9979   -1.1203   -0.0020 C   0  0  0  0  0  0
   -4.0903   -0.2174    0.0450 C   0  0  0  0  0  0
   -4.1926   -1.6689    0.0393 C   0  0  0  0  0  0
    0.1615   -0.0246    0.0032 C   0  0  0  0  0  0
   -0.6067   -1.2005   -0.0237 C   0  0  0  0  0  0
   -1.9118    1.2686    0.0770 C   0  0  0  0  0  0
   -5.2053    0.5487    0.0635 C   0  0  0  0  0  0
   -0.5160    1.2066    0.0553 C   0  0  0  0  0  0
    1.6555   -0.0796   -0.0123 C   0  0  0  0  0  0
   -5.3167    1.9931    0.0185 C   0  0  0  0  0  0
    2.4034    0.9186   -0.6539 C   0  0  0  0  0  0
    2.3413   -1.1287    0.6174 C   0  0  0  0  0  0
   -4.7058    2.9782   -0.7524 C   0  0  0  0  0  0
    3.7950    0.8722   -0.6649 C   0  0  0  0  0  0
    3.7328   -1.1782    0.6106 C   0  0  0  0  0  0
    4.4560   -0.1759   -0.0306 C   0  0  0  0  0  0
   -6.1715    3.9920    0.6051 C   0  0  0  0  0  0
   -5.2266    4.2222   -0.3798 C   0  0  0  0  0  0
    6.1763   -0.9803    0.4327 H   0  0  0  0  0  0
   -2.7004   -3.1126   -0.0181 H   0  0  0  0  0  0
   -6.8291    2.1845    1.4912 H   0  0  0  0  0  0
   -0.1248   -2.1661   -0.0668 H   0  0  0  0  0  0
   -2.3827    2.2353    0.1414 H   0  0  0  0  0  0
   -6.1738    0.0678    0.1106 H   0  0  0  0  0  0
    0.0379    2.1329    0.0974 H   0  0  0  0  0  0
    1.9105    1.7363   -1.1590 H   0  0  0  0  0  0
    1.7998   -1.9097    1.1307 H   0  0  0  0  0  0
   -3.9576    2.8120   -1.5136 H   0  0  0  0  0  0
    4.3552    1.6485   -1.1656 H   0  0  0  0  0  0
    4.2431   -1.9918    1.1051 H   0  0  0  0  0  0
   -6.8114    4.6623    1.1600 H   0  0  0  0  0  0
   -4.9498    5.1816   -0.7915 H   0  0  0  0  0  0
  1  8  2  0  0  0
  2 21  1  0  0  0
  2 24  1  0  0  0
  3  6  1  0  0  0
  3  8  1  0  0  0
  3 25  1  0  0  0
  4 15  1  0  0  0
  4 22  1  0  0  0
  4 26  1  0  0  0
  5  6  2  0  0  0
  5  7  1  0  0  0
  5 11  1  0  0  0
  6 10  1  0  0  0
  7  8  1  0  0  0
  7 12  2  3  0  0
  9 10  2  0  0  0
  9 13  1  0  0  0
  9 14  1  0  0  0
 10 27  1  0  0  0
 11 13  2  0  0  0
 11 28  1  0  0  0
 12 15  1  0  0  0
 12 29  1  0  0  0
 13 30  1  0  0  0
 14 16  2  0  0  0
 14 17  1  0  0  0
 15 18  2  0  0  0
 16 19  1  0  0  0
 16 31  1  0  0  0
 17 20  2  0  0  0
 17 32  1  0  0  0
 18 23  1  0  0  0
 18 33  1  0  0  0
 19 21  2  0  0  0
 19 34  1  0  0  0
 20 21  1  0  0  0
 20 35  1  0  0  0
 22 23  2  0  0  0
 22 36  1  0  0  0
 23 37  1  0  0  0
M  END
> <chembl_id>
CHEMBL1980329

> <chembl_pref_name>
None

> <s_m_source_file>
sdf/actives_sanitized.sdf

> <i_m_source_file_index>
27

> <i_lp_mmshare_version>
49012

> <i_m_ct_stereo_status>
1

> <i_f3d_flags>
0

> <s_epik_input>
W2NIXTFbY0hdW2NIXVtuSF1jMS9bQ0hdPUNcMkMoPU8pW05IXWMoYzIzKVtjSF1jKFtjSF1bY0hdMyktYzRbY0hdW2NIXWMoW09IXSlbY0hdW2NIXTQ=

> <s_epik_cmdline>
J2VwaWtfcHl0aG9uJywgJy1waHQnLCAnMC41JywgJy1waCcsICc3LjUnLCAnLW50JywgJy1tYScsICcyMDAnLCAnLWltYWUnLCAnPGluZmlsZS5tYWU+JywgJy1vbWFlJywgJzxvdXRmaWxlLm1hZT4n

> <r_lp_tautomer_probability>
1

> <r_epik_Ionization_Penalty>
  0.0031

> <r_epik_Ionization_Penalty_Charging>
  0.0000

> <r_epik_Ionization_Penalty_Neutral>
  0.0031

> <r_epik_State_Penalty>
 -0.0000

> <r_epik_Charging_Adjusted_Penalty>
0

> <i_epik_Tot_Q>
0

> <i_epik_Tot_abs_Q>
0

> <s_lp_Force_Field>
OPLS3e

> <r_lp_Energy>
27.060417

> <b_lp_Chiralities_Consistent>
1

> <s_lp_Variant>
sdf/actives_sanitized.sdf:27-1

$$$$
sdf/actives_sanitized.sdf:28
                    3D
 Schrodinger Suite 2020-1.
 39 42  0  0  1  0            999 V2000
   -6.9753   -1.1283   -0.0005 O   0  0  0  0  0  0
   -5.8189   -1.5421   -0.0003 C   0  0  0  0  0  0
   -5.6436   -2.8911   -0.0002 N   0  0  0  0  0  0
   -4.4317   -3.5059   -0.0002 C   0  0  0  0  0  0
   -3.2556   -2.8664   -0.0001 C   0  0  0  0  0  0
   -3.2700   -1.3952   -0.0001 C   0  0  0  0  0  0
   -2.0638   -0.6810   -0.0001 C   0  0  0  0  0  0
   -4.5164   -0.7073   -0.0002 C   0  0  0  0  0  0
   -4.5433    0.7486   -0.0001 C   0  0  0  0  0  0
   -5.7227    1.5640   -0.0001 C   0  0  0  0  0  0
   -5.6549    2.9546   -0.0000 C   0  0  0  0  0  0
   -6.7952    3.6814   -0.0000 F   0  0  0  0  0  0
   -4.4291    3.6031    0.0000 C   0  0  0  0  0  0
   -3.2509    2.8703    0.0000 C   0  0  0  0  0  0
   -3.2956    1.4522   -0.0000 C   0  0  0  0  0  0
   -2.0919    0.7141   -0.0000 C   0  0  0  0  0  0
   -0.7787    1.1192    0.0000 N   0  0  0  0  0  0
   -0.0175   -0.0308    0.0000 C   0  0  0  0  0  0
   -0.7610   -1.1189   -0.0000 N   0  0  0  0  0  0
    1.5181    0.0013    0.0000 C   0  0  0  0  0  0
    2.1175   -1.4280    0.0000 C   0  0  0  0  0  0
    2.0202    0.7421    1.2610 C   0  0  0  0  0  0
    2.0202    0.7421   -1.2610 C   0  0  0  0  0  0
   -6.4908   -3.4402   -0.0003 H   0  0  0  0  0  0
   -4.5318   -4.5814   -0.0002 H   0  0  0  0  0  0
   -2.3283   -3.4210   -0.0001 H   0  0  0  0  0  0
   -6.7094    1.1398   -0.0001 H   0  0  0  0  0  0
   -4.3911    4.6826    0.0001 H   0  0  0  0  0  0
   -2.3000    3.3834    0.0001 H   0  0  0  0  0  0
    3.2082   -1.4080    0.0000 H   0  0  0  0  0  0
    1.8026   -1.9952   -0.8774 H   0  0  0  0  0  0
    1.8026   -1.9952    0.8774 H   0  0  0  0  0  0
    1.6720    0.2548    2.1731 H   0  0  0  0  0  0
    1.6640    1.7727    1.2944 H   0  0  0  0  0  0
    3.1099    0.7749    1.3025 H   0  0  0  0  0  0
    3.1099    0.7748   -1.3024 H   0  0  0  0  0  0
    1.6640    1.7727   -1.2943 H   0  0  0  0  0  0
    1.6720    0.2548   -2.1731 H   0  0  0  0  0  0
   -0.3920    2.0520    0.0000 H   0  0  0  0  0  0
  1  2  2  0  0  0
  2  3  1  0  0  0
  2  8  1  0  0  0
  3  4  1  0  0  0
  3 24  1  0  0  0
  4  5  2  0  0  0
  4 25  1  0  0  0
  5  6  1  0  0  0
  5 26  1  0  0  0
  6  7  1  0  0  0
  6  8  2  0  0  0
  7 16  2  0  0  0
  7 19  1  0  0  0
  8  9  1  0  0  0
  9 10  2  0  0  0
  9 15  1  0  0  0
 10 11  1  0  0  0
 10 27  1  0  0  0
 11 12  1  0  0  0
 11 13  2  0  0  0
 13 14  1  0  0  0
 13 28  1  0  0  0
 14 15  2  0  0  0
 14 29  1  0  0  0
 15 16  1  0  0  0
 16 17  1  0  0  0
 17 18  1  0  0  0
 17 39  1  0  0  0
 18 19  2  0  0  0
 18 20  1  0  0  0
 20 21  1  0  0  0
 20 22  1  0  0  0
 20 23  1  0  0  0
 21 30  1  0  0  0
 21 31  1  0  0  0
 21 32  1  0  0  0
 22 33  1  0  0  0
 22 34  1  0  0  0
 22 35  1  0  0  0
 23 36  1  0  0  0
 23 37  1  0  0  0
 23 38  1  0  0  0
M  END
> <chembl_id>
CHEMBL21156

> <chembl_pref_name>
None

> <s_m_source_file>
sdf/actives_sanitized.sdf

> <i_m_source_file_index>
28

> <i_lp_mmshare_version>
49012

> <i_m_ct_stereo_status>
1

> <i_f3d_flags>
0

> <s_epik_input>
W2NIXTFbY0hdW25IXWMoPU8pYzJjKFtjSF1jKEYpW2NIXVtjSF0zKWMzYyhjNGMxMiluYyhbbkhdNClDKFtDSDNdKShbQ0gzXSlbQ0gzXQ==

> <s_epik_cmdline>
J2VwaWtfcHl0aG9uJywgJy1waHQnLCAnMC41JywgJy1waCcsICc3LjUnLCAnLW50JywgJy1tYScsICcyMDAnLCAnLWltYWUnLCAnPGluZmlsZS5tYWU+JywgJy1vbWFlJywgJzxvdXRmaWxlLm1hZT4n

> <r_epik_Ionization_Penalty>
  0.0076

> <r_epik_Ionization_Penalty_Charging>
  0.0013

> <r_epik_Ionization_Penalty_Neutral>
  0.0063

> <r_epik_State_Penalty>
  0.2765

> <r_epik_Charging_Adjusted_Penalty>
0.277881754730998

> <i_epik_Tot_Q>
0

> <i_epik_Tot_abs_Q>
0

> <s_lp_Force_Field>
OPLS3e

> <r_lp_Energy>
37.768782

> <b_lp_Chiralities_Consistent>
1

> <s_lp_Variant>
sdf/actives_sanitized.sdf:28-1

$$$$
sdf/actives_sanitized.sdf:28
                    3D
 Schrodinger Suite 2020-1.
 39 42  0  0  1  0            999 V2000
   -6.9874    1.3433   -0.0027 O   0  0  0  0  0  0
   -5.8275    1.7467   -0.0020 C   0  0  0  0  0  0
   -5.6429    3.0953   -0.0018 N   0  0  0  0  0  0
   -4.4269    3.7035   -0.0015 C   0  0  0  0  0  0
   -3.2542    3.0575   -0.0011 C   0  0  0  0  0  0
   -3.2870    1.5895   -0.0009 C   0  0  0  0  0  0
   -2.1095    0.8457   -0.0006 C   0  0  0  0  0  0
   -4.5313    0.9010   -0.0012 C   0  0  0  0  0  0
   -4.5687   -0.5552   -0.0008 C   0  0  0  0  0  0
   -5.7581   -1.3568   -0.0008 C   0  0  0  0  0  0
   -5.7086   -2.7474   -0.0004 C   0  0  0  0  0  0
   -6.8588   -3.4588   -0.0003 F   0  0  0  0  0  0
   -4.4920   -3.4110   -0.0002 C   0  0  0  0  0  0
   -3.3052   -2.6927   -0.0002 C   0  0  0  0  0  0
   -3.3255   -1.2712   -0.0005 C   0  0  0  0  0  0
   -2.1062   -0.5508   -0.0004 C   0  0  0  0  0  0
   -0.8383   -1.0750   -0.0001 N   0  0  0  0  0  0
   -0.0519   -0.0216   -0.0001 C   0  0  0  0  0  0
   -0.7677    1.1593   -0.0003 N   0  0  0  0  0  0
    1.4843   -0.0512    0.0000 C   0  0  0  0  0  0
    2.0284   -1.5025    0.0001 C   0  0  0  0  0  0
    2.0148    0.6700    1.2610 C   0  0  0  0  0  0
    2.0150    0.6700   -1.2609 C   0  0  0  0  0  0
   -6.4863    3.6502   -0.0023 H   0  0  0  0  0  0
   -4.5213    4.7794   -0.0016 H   0  0  0  0  0  0
   -2.3216    3.6027   -0.0008 H   0  0  0  0  0  0
   -6.7407   -0.9227   -0.0009 H   0  0  0  0  0  0
   -4.4670   -4.4908    0.0001 H   0  0  0  0  0  0
   -2.3634   -3.2227    0.0000 H   0  0  0  0  0  0
   -0.3321    2.0703   -0.0004 H   0  0  0  0  0  0
    3.1191   -1.5259    0.0001 H   0  0  0  0  0  0
    1.6915   -2.0569   -0.8773 H   0  0  0  0  0  0
    1.6914   -2.0569    0.8774 H   0  0  0  0  0  0
    1.6626    0.1866    2.1737 H   0  0  0  0  0  0
    1.6842    1.7088    1.3033 H   0  0  0  0  0  0
    3.1053    0.6760    1.2935 H   0  0  0  0  0  0
    3.1055    0.6759   -1.2933 H   0  0  0  0  0  0
    1.6844    1.7088   -1.3033 H   0  0  0  0  0  0
    1.6629    0.1866   -2.1737 H   0  0  0  0  0  0
  1  2  2  0  0  0
  2  3  1  0  0  0
  2  8  1  0  0  0
  3  4  1  0  0  0
  3 24  1  0  0  0
  4  5  2  0  0  0
  4 25  1  0  0  0
  5  6  1  0  0  0
  5 26  1  0  0  0
  6  7  1  0  0  0
  6  8  2  0  0  0
  7 16  2  0  0  0
  7 19  1  0  0  0
  8  9  1  0  0  0
  9 10  2  0  0  0
  9 15  1  0  0  0
 10 11  1  0  0  0
 10 27  1  0  0  0
 11 12  1  0  0  0
 11 13  2  0  0  0
 13 14  1  0  0  0
 13 28  1  0  0  0
 14 15  2  0  0  0
 14 29  1  0  0  0
 15 16  1  0  0  0
 16 17  1  0  0  0
 17 18  2  0  0  0
 18 19  1  0  0  0
 18 20  1  0  0  0
 19 30  1  0  0  0
 20 21  1  0  0  0
 20 22  1  0  0  0
 20 23  1  0  0  0
 21 31  1  0  0  0
 21 32  1  0  0  0
 21 33  1  0  0  0
 22 34  1  0  0  0
 22 35  1  0  0  0
 22 36  1  0  0  0
 23 37  1  0  0  0
 23 38  1  0  0  0
 23 39  1  0  0  0
M  END
> <chembl_id>
CHEMBL21156

> <chembl_pref_name>
None

> <s_m_source_file>
sdf/actives_sanitized.sdf

> <i_m_source_file_index>
28

> <i_lp_mmshare_version>
49012

> <i_m_ct_stereo_status>
1

> <i_f3d_flags>
0

> <s_epik_input>
W2NIXTFbY0hdW25IXWMoPU8pYzJjKFtjSF1jKEYpW2NIXVtjSF0zKWMzYyhjNGMxMiluYyhbbkhdNClDKFtDSDNdKShbQ0gzXSlbQ0gzXQ==

> <s_epik_cmdline>
J2VwaWtfcHl0aG9uJywgJy1waHQnLCAnMC41JywgJy1waCcsICc3LjUnLCAnLW50JywgJy1tYScsICcyMDAnLCAnLWltYWUnLCAnPGluZmlsZS5tYWU+JywgJy1vbWFlJywgJzxvdXRmaWxlLm1hZT4n

> <r_epik_Ionization_Penalty>
  0.1518

> <r_epik_Ionization_Penalty_Charging>
  0.0000

> <r_epik_Ionization_Penalty_Neutral>
  0.1518

> <r_epik_State_Penalty>
  0.5844

> <r_epik_Charging_Adjusted_Penalty>
0.584350687752685

> <i_epik_Tot_Q>
0

> <i_epik_Tot_abs_Q>
0

> <s_lp_Force_Field>
OPLS3e

> <r_lp_Energy>
38.046262

> <b_lp_Chiralities_Consistent>
1

> <s_lp_Variant>
sdf/actives_sanitized.sdf:28-2

$$$$
sdf/actives_sanitized.sdf:29
                    3D
 Schrodinger Suite 2020-1.
 74 78  0  0  1  0            999 V2000
   -0.2302    2.7563    1.1966 S   0  0  0  0  0  0
   -6.6636    4.8357   -1.0504 O   0  0  0  0  0  0
   -9.3456    1.1268    0.7318 O   0  0  0  0  0  0
    4.5716    0.6880    0.9359 O   0  0  0  0  0  0
  -11.8960    2.5965    0.8322 N   0  0  0  0  0  0
   -1.4558   -0.9404   -1.1184 N   0  0  0  0  0  0
   -8.3628    3.1203    0.1561 N   0  0  0  0  0  0
   -3.6604   -0.2177   -1.1372 N   0  0  0  0  0  0
    5.0163   -1.0984   -0.3905 N   0  0  0  0  0  0
    6.5132   -3.1148    1.4405 N   0  3  0  0  0  0
   -1.9629    1.1518    0.0057 C   0  0  0  0  0  0
   -2.7299    2.2602    0.5178 C   0  0  0  0  0  0
   -0.5636    1.2701    0.3132 C   0  0  0  0  0  0
   -4.2024    2.4562    0.4197 C   0  0  0  0  0  0
   -2.3429    0.0054   -0.7351 C   0  0  0  0  0  0
    0.3699    0.2852   -0.0825 C   0  0  0  0  0  0
   -1.9133    3.1784    1.1457 C   0  0  0  0  0  0
  -10.6980    2.9748    0.2255 C   0  0  0  0  0  0
  -12.9416    3.3606    0.3258 C   0  0  0  0  0  0
   -6.9797    2.8578    0.2609 C   0  0  0  0  0  0
   -4.7195    3.5496   -0.2775 C   0  0  0  0  0  0
   -6.1064    3.7655   -0.3673 C   0  0  0  0  0  0
  -12.3854    4.2687   -0.6196 C   0  0  0  0  0  0
   -5.0759    1.5723    1.0515 C   0  0  0  0  0  0
   -0.1529   -0.7962   -0.7962 C   0  0  0  0  0  0
   -9.4184    2.3082    0.3914 C   0  0  0  0  0  0
  -10.9876    3.9949   -0.6752 C   0  0  0  0  0  0
   -6.4518    1.7683    0.9749 C   0  0  0  0  0  0
    1.8116    0.4109    0.2379 C   0  0  0  0  0  0
  -14.3173    3.3445    0.6055 C   0  0  0  0  0  0
  -13.2295    5.1748   -1.2802 C   0  0  0  0  0  0
  -12.0844    1.5166    1.8026 C   0  0  0  0  0  0
  -15.1209    4.2619   -0.0714 C   0  0  0  0  0  0
  -14.5924    5.1597   -0.9935 C   0  0  0  0  0  0
    2.8028   -0.4013   -0.1925 C   0  0  0  0  0  0
    4.1866   -0.2041    0.1766 C   0  0  0  0  0  0
   -5.8158    5.7755   -1.7022 C   0  0  0  0  0  0
    6.4680   -1.1436   -0.2031 C   0  0  0  0  0  0
    6.9117   -1.6393    1.1927 C   0  0  0  0  0  0
    6.6845   -3.4925    2.9251 C   0  0  0  0  0  0
    7.2571   -4.1195    0.5361 C   0  0  0  0  0  0
   -8.5824    4.0506   -0.1685 H   0  0  0  0  0  0
   -4.3779    0.4497   -0.8903 H   0  0  0  0  0  0
   -3.8817   -1.0466   -1.6706 H   0  0  0  0  0  0
    4.6224   -1.7893   -1.0127 H   0  0  0  0  0  0
   -2.2291    4.1009    1.6111 H   0  0  0  0  0  0
   -4.0236    4.2266   -0.7497 H   0  0  0  0  0  0
   -4.6896    0.7323    1.6109 H   0  0  0  0  0  0
    0.4801   -1.6001   -1.1392 H   0  0  0  0  0  0
  -10.2660    4.4788   -1.3175 H   0  0  0  0  0  0
   -7.0827    1.0675    1.4979 H   0  0  0  0  0  0
    2.0702    1.2377    0.8851 H   0  0  0  0  0  0
  -14.7511    2.6581    1.3173 H   0  0  0  0  0  0
  -12.8339    5.8722   -2.0038 H   0  0  0  0  0  0
  -12.9261    1.7427    2.4574 H   0  0  0  0  0  0
  -11.2036    1.4104    2.4355 H   0  0  0  0  0  0
  -12.2767    0.5833    1.2726 H   0  0  0  0  0  0
  -16.1831    4.2761    0.1254 H   0  0  0  0  0  0
  -15.2505    5.8530   -1.4966 H   0  0  0  0  0  0
    2.5942   -1.2393   -0.8422 H   0  0  0  0  0  0
   -6.4275    6.5403   -2.1803 H   0  0  0  0  0  0
   -5.2150    5.3009   -2.4795 H   0  0  0  0  0  0
   -5.1555    6.2778   -0.9935 H   0  0  0  0  0  0
    6.8955   -1.7603   -0.9923 H   0  0  0  0  0  0
    6.8797   -0.1470   -0.3745 H   0  0  0  0  0  0
    6.4272   -1.0668    1.9855 H   0  0  0  0  0  0
    7.9930   -1.5904    1.3325 H   0  0  0  0  0  0
    7.7428   -3.3959    3.1742 H   0  0  0  0  0  0
    6.3344   -4.5189    3.0444 H   0  0  0  0  0  0
    6.0694   -2.8060    3.5086 H   0  0  0  0  0  0
    8.3277   -3.9940    0.7064 H   0  0  0  0  0  0
    6.9834   -3.9113   -0.4972 H   0  0  0  0  0  0
    6.9229   -5.1191    0.8175 H   0  0  0  0  0  0
    5.5267   -3.1921    1.2332 H   0  0  0  0  0  0
  1 13  1  0  0  0
  1 17  1  0  0  0
  2 22  1  0  0  0
  2 37  1  0  0  0
  3 26  2  0  0  0
  4 36  2  0  0  0
  5 18  1  0  0  0
  5 19  1  0  0  0
  5 32  1  0  0  0
  6 15  2  0  0  0
  6 25  1  0  0  0
  7 20  1  0  0  0
  7 26  1  0  0  0
  7 42  1  0  0  0
  8 15  1  0  0  0
  8 43  1  0  0  0
  8 44  1  0  0  0
  9 36  1  0  0  0
  9 38  1  0  0  0
  9 45  1  0  0  0
 10 39  1  0  0  0
 10 40  1  0  0  0
 10 41  1  0  0  0
 10 74  1  0  0  0
 11 12  1  0  0  0
 11 13  2  0  0  0
 11 15  1  0  0  0
 12 14  1  0  0  0
 12 17  2  0  0  0
 13 16  1  0  0  0
 14 21  2  0  0  0
 14 24  1  0  0  0
 16 25  2  0  0  0
 16 29  1  0  0  0
 17 46  1  0  0  0
 18 26  1  0  0  0
 18 27  2  0  0  0
 19 23  2  0  0  0
 19 30  1  0  0  0
 20 22  2  0  0  0
 20 28  1  0  0  0
 21 22  1  0  0  0
 21 47  1  0  0  0
 23 27  1  0  0  0
 23 31  1  0  0  0
 24 28  2  0  0  0
 24 48  1  0  0  0
 25 49  1  0  0  0
 27 50  1  0  0  0
 28 51  1  0  0  0
 29 35  2  3  0  0
 29 52  1  0  0  0
 30 33  2  0  0  0
 30 53  1  0  0  0
 31 34  2  0  0  0
 31 54  1  0  0  0
 32 55  1  0  0  0
 32 56  1  0  0  0
 32 57  1  0  0  0
 33 34  1  0  0  0
 33 58  1  0  0  0
 34 59  1  0  0  0
 35 36  1  0  0  0
 35 60  1  0  0  0
 37 61  1  0  0  0
 37 62  1  0  0  0
 37 63  1  0  0  0
 38 39  1  0  0  0
 38 64  1  0  0  0
 38 65  1  0  0  0
 39 66  1  0  0  0
 39 67  1  0  0  0
 40 68  1  0  0  0
 40 69  1  0  0  0
 40 70  1  0  0  0
 41 71  1  0  0  0
 41 72  1  0  0  0
 41 73  1  0  0  0
M  CHG  1  10   1
M  END
> <chembl_id>
CHEMBL1989267

> <chembl_pref_name>
None

> <s_m_source_file>
sdf/actives_sanitized.sdf

> <i_m_source_file_index>
29

> <i_lp_mmshare_version>
49012

> <i_m_ct_stereo_status>
1

> <i_f3d_flags>
0

> <s_epik_input>
W0NIM11OKFtDSDNdKVtDSDJdW0NIMl1bTkhdQyg9TylcW0NIXT1bQ0hdXGMoW2NIXW5jMVtOSDJdKWMoYzEyKXNbY0hdYzItYzNbY0hdYyhPW0NIM10pYyhbY0hdW2NIXTMpW05IXUMoPU8pYyhuNFtDSDNdKVtjSF1jKGM0NSlbY0hdW2NIXVtjSF1bY0hdNQ==

> <s_epik_cmdline>
J2VwaWtfcHl0aG9uJywgJy1waHQnLCAnMC41JywgJy1waCcsICc3LjUnLCAnLW50JywgJy1tYScsICcyMDAnLCAnLWltYWUnLCAnPGluZmlsZS5tYWU+JywgJy1vbWFlJywgJzxvdXRmaWxlLm1hZT4n

> <r_lp_tautomer_probability>
1

> <r_epik_Ionization_Penalty>
  0.0392

> <r_epik_Ionization_Penalty_Charging>
  0.0187

> <r_epik_Ionization_Penalty_Neutral>
  0.0205

> <r_epik_State_Penalty>
 -0.0000

> <r_epik_Charging_Adjusted_Penalty>
0.0186981949550556

> <i_epik_Tot_Q>
1

> <i_epik_Tot_abs_Q>
1

> <s_lp_Force_Field>
OPLS3e

> <r_lp_Energy>
78.21895

> <b_lp_Chiralities_Consistent>
1

> <s_lp_Variant>
sdf/actives_sanitized.sdf:29-1

$$$$
sdf/actives_sanitized.sdf:30
                    3D
 Schrodinger Suite 2020-1.
 45 48  0  0  1  0            999 V2000
   -0.4679    5.5950   -0.8041 Cl  0  0  0  0  0  0
   -5.3546    6.6869    1.0698 O   0  0  0  0  0  0
    2.3916    1.3811    0.0060 N   0  0  0  0  0  0
    1.9920   -0.9254   -0.6405 N   0  0  0  0  0  0
    0.1930    0.5079   -0.3152 N   0  0  0  0  0  0
   -3.1628    4.9423    0.4188 N   0  0  0  0  0  0
    4.7429    1.9442    0.2600 N   0  0  0  0  0  0
    4.2538   -0.1756   -0.3367 C   0  0  0  0  0  0
    3.6962    1.0919   -0.0163 C   0  0  0  0  0  0
    3.3277   -1.1867   -0.6485 C   0  0  0  0  0  0
    1.5852    0.3317   -0.3234 C   0  0  0  0  0  0
   -2.3204    3.8579    0.2290 C   0  0  0  0  0  0
   -0.6112    1.6465   -0.1382 C   0  0  0  0  0  0
   -1.0421    4.0316   -0.3266 C   0  0  0  0  0  0
    5.6787   -0.0446   -0.2436 C   0  0  0  0  0  0
   -0.2013    2.9323   -0.5106 C   0  0  0  0  0  0
   -2.7318    2.5665    0.5849 C   0  0  0  0  0  0
   -1.8880    1.4729    0.3983 C   0  0  0  0  0  0
    5.9314    1.2653    0.1241 C   0  0  0  0  0  0
    3.7152   -2.6069   -1.0307 C   0  0  0  0  0  0
   -3.4790    5.3291    1.8017 C   0  0  0  0  0  0
   -4.3856    5.0101   -0.3950 C   0  0  0  0  0  0
   -4.1801    6.7029    1.8712 C   0  0  0  0  0  0
   -5.0723    6.3890   -0.2916 C   0  0  0  0  0  0
    4.1477   -2.7233   -2.4991 C   0  0  0  0  0  0
   -0.3241   -0.3419   -0.4878 H   0  0  0  0  0  0
    4.6944    2.9181    0.5221 H   0  0  0  0  0  0
    6.4285   -0.8020   -0.4200 H   0  0  0  0  0  0
    0.7673    3.0921   -0.9595 H   0  0  0  0  0  0
   -3.7124    2.4049    1.0093 H   0  0  0  0  0  0
   -2.2327    0.4886    0.6818 H   0  0  0  0  0  0
    6.8646    1.7795    0.3023 H   0  0  0  0  0  0
    4.5245   -2.9362   -0.3777 H   0  0  0  0  0  0
    2.8831   -3.2883   -0.8433 H   0  0  0  0  0  0
   -4.0932    4.5610    2.2747 H   0  0  0  0  0  0
   -2.5511    5.3821    2.3731 H   0  0  0  0  0  0
   -4.1246    4.8280   -1.4386 H   0  0  0  0  0  0
   -5.0748    4.2161   -0.1027 H   0  0  0  0  0  0
   -3.5095    7.5035    1.5527 H   0  0  0  0  0  0
   -4.4640    6.9245    2.9000 H   0  0  0  0  0  0
   -6.0100    6.3800   -0.8475 H   0  0  0  0  0  0
   -4.4536    7.1716   -0.7354 H   0  0  0  0  0  0
    4.4242   -3.7495   -2.7419 H   0  0  0  0  0  0
    5.0100   -2.0903   -2.7108 H   0  0  0  0  0  0
    3.3420   -2.4296   -3.1730 H   0  0  0  0  0  0
  1 14  1  0  0  0
  2 23  1  0  0  0
  2 24  1  0  0  0
  3  9  2  0  0  0
  3 11  1  0  0  0
  4 10  1  0  0  0
  4 11  2  0  0  0
  5 11  1  0  0  0
  5 13  1  0  0  0
  5 26  1  0  0  0
  6 12  1  0  0  0
  6 21  1  0  0  0
  6 22  1  0  0  0
  7  9  1  0  0  0
  7 19  1  0  0  0
  7 27  1  0  0  0
  8  9  1  0  0  0
  8 10  2  0  0  0
  8 15  1  0  0  0
 10 20  1  0  0  0
 12 14  2  0  0  0
 12 17  1  0  0  0
 13 16  2  0  0  0
 13 18  1  0  0  0
 14 16  1  0  0  0
 15 19  2  0  0  0
 15 28  1  0  0  0
 16 29  1  0  0  0
 17 18  2  0  0  0
 17 30  1  0  0  0
 18 31  1  0  0  0
 19 32  1  0  0  0
 20 25  1  0  0  0
 20 33  1  0  0  0
 20 34  1  0  0  0
 21 23  1  0  0  0
 21 35  1  0  0  0
 21 36  1  0  0  0
 22 24  1  0  0  0
 22 37  1  0  0  0
 22 38  1  0  0  0
 23 39  1  0  0  0
 23 40  1  0  0  0
 24 41  1  0  0  0
 24 42  1  0  0  0
 25 43  1  0  0  0
 25 44  1  0  0  0
 25 45  1  0  0  0
M  END
> <chembl_id>
CHEMBL2004118

> <chembl_pref_name>
None

> <s_m_source_file>
sdf/actives_sanitized.sdf

> <i_m_source_file_index>
30

> <i_lp_mmshare_version>
49012

> <i_m_ct_stereo_status>
1

> <i_f3d_flags>
0

> <s_epik_input>
W0NIMl0xW0NIMl1PW0NIMl1bQ0gyXU4xYzJjKENsKVtjSF1jKFtjSF1bY0hdMilbTkhdYyhuYzNbQ0gyXVtDSDNdKW5jKGMzNClbbkhdW2NIXVtjSF00

> <s_epik_cmdline>
J2VwaWtfcHl0aG9uJywgJy1waHQnLCAnMC41JywgJy1waCcsICc3LjUnLCAnLW50JywgJy1tYScsICcyMDAnLCAnLWltYWUnLCAnPGluZmlsZS5tYWU+JywgJy1vbWFlJywgJzxvdXRmaWxlLm1hZT4n

> <r_lp_tautomer_probability>
1

> <r_epik_Ionization_Penalty>
  0.0001

> <r_epik_Ionization_Penalty_Charging>
  0.0000

> <r_epik_Ionization_Penalty_Neutral>
  0.0001

> <r_epik_State_Penalty>
 -0.0000

> <r_epik_Charging_Adjusted_Penalty>
0

> <i_epik_Tot_Q>
0

> <i_epik_Tot_abs_Q>
0

> <s_lp_Force_Field>
OPLS3e

> <r_lp_Energy>
27.492035

> <b_lp_Chiralities_Consistent>
1

> <s_lp_Variant>
sdf/actives_sanitized.sdf:30-1

$$$$
sdf/actives_sanitized.sdf:31
                    3D
 Schrodinger Suite 2020-1.
 39 42  0  0  1  0            999 V2000
    5.4838   -1.5002   -2.8014 Cl  0  0  0  0  0  0
    1.1893   -2.0010    0.7125 F   0  0  0  0  0  0
    0.0320    0.4926    1.0644 O   0  0  0  0  0  0
    6.6239    0.6629   -0.1569 N   0  0  0  0  0  0
    4.2265    2.6475    0.4063 N   0  0  0  0  0  0
    5.9552    4.1575    0.0883 N   0  0  0  0  0  0
    7.2568    4.0695   -0.1930 N   0  0  0  0  0  0
    4.1686    0.1375    0.2854 C   0  0  0  0  0  0
    5.6369   -0.1350    0.0086 C   0  0  0  0  0  0
    3.5555    1.4180    0.4664 C   0  0  0  0  0  0
    6.5691    2.0137   -0.1112 C   0  0  0  0  0  0
    5.5302    2.9150    0.1373 C   0  0  0  0  0  0
    6.0519   -1.5473   -0.1038 C   0  0  0  0  0  0
    7.7055    2.7848   -0.3293 C   0  0  0  0  0  0
    3.3096   -0.9853    0.3803 C   0  0  0  0  0  0
    2.1805    1.4940    0.7244 C   0  0  0  0  0  0
    1.3731    0.3671    0.8035 C   0  0  0  0  0  0
    1.9473   -0.8825    0.6337 C   0  0  0  0  0  0
    6.0209   -2.2431   -1.3295 C   0  0  0  0  0  0
    6.4967   -2.2085    1.0502 C   0  0  0  0  0  0
    6.4283   -3.5784   -1.3773 C   0  0  0  0  0  0
    9.1489    2.4619   -0.6450 C   0  0  0  0  0  0
    6.8999   -3.5417    0.9898 C   0  0  0  0  0  0
    6.8658   -4.2263   -0.2232 C   0  0  0  0  0  0
   -0.7646    0.6985   -0.0941 C   0  0  0  0  0  0
    3.6476    3.4606    0.5586 H   0  0  0  0  0  0
    7.8372    4.8904   -0.2898 H   0  0  0  0  0  0
    3.6722   -1.9947    0.2596 H   0  0  0  0  0  0
    1.7164    2.4603    0.8654 H   0  0  0  0  0  0
    6.5314   -1.6944    2.0008 H   0  0  0  0  0  0
    6.4055   -4.1176   -2.3132 H   0  0  0  0  0  0
    9.3180    1.3885   -0.7337 H   0  0  0  0  0  0
    9.8209    2.8284    0.1313 H   0  0  0  0  0  0
    9.4659    2.9137   -1.5853 H   0  0  0  0  0  0
    7.2397   -4.0437    1.8837 H   0  0  0  0  0  0
    7.1791   -5.2589   -0.2696 H   0  0  0  0  0  0
   -1.8124    0.7762    0.1958 H   0  0  0  0  0  0
   -0.6746   -0.1328   -0.7956 H   0  0  0  0  0  0
   -0.4927    1.6216   -0.6090 H   0  0  0  0  0  0
  1 19  1  0  0  0
  2 18  1  0  0  0
  3 17  1  0  0  0
  3 25  1  0  0  0
  4  9  2  0  0  0
  4 11  1  0  0  0
  5 10  1  0  0  0
  5 12  1  0  0  0
  5 26  1  0  0  0
  6  7  1  0  0  0
  6 12  2  0  0  0
  7 14  1  0  0  0
  7 27  1  0  0  0
  8  9  1  0  0  0
  8 10  2  0  0  0
  8 15  1  0  0  0
  9 13  1  0  0  0
 10 16  1  0  0  0
 11 12  1  0  0  0
 11 14  2  0  0  0
 13 19  2  0  0  0
 13 20  1  0  0  0
 14 22  1  0  0  0
 15 18  2  0  0  0
 15 28  1  0  0  0
 16 17  2  0  0  0
 16 29  1  0  0  0
 17 18  1  0  0  0
 19 21  1  0  0  0
 20 23  2  0  0  0
 20 30  1  0  0  0
 21 24  2  0  0  0
 21 31  1  0  0  0
 22 32  1  0  0  0
 22 33  1  0  0  0
 22 34  1  0  0  0
 23 24  1  0  0  0
 23 35  1  0  0  0
 24 36  1  0  0  0
 25 37  1  0  0  0
 25 38  1  0  0  0
 25 39  1  0  0  0
M  END
> <chembl_id>
CHEMBL1980391

> <chembl_pref_name>
RG-1530

> <s_m_source_file>
sdf/actives_sanitized.sdf

> <i_m_source_file_index>
31

> <i_lp_mmshare_version>
49012

> <i_m_ct_stereo_status>
1

> <i_f3d_flags>
0

> <s_epik_input>
W2NIXTFbY0hdW2NIXVtjSF1jKENsKWMxQzI9TmMoYyhbbkhdbjMpW0NIM10pYzNbTkhdYyhjMjQpW2NIXWMoT1tDSDNdKWMoRilbY0hdNA==

> <s_epik_cmdline>
J2VwaWtfcHl0aG9uJywgJy1waHQnLCAnMC41JywgJy1waCcsICc3LjUnLCAnLW50JywgJy1tYScsICcyMDAnLCAnLWltYWUnLCAnPGluZmlsZS5tYWU+JywgJy1vbWFlJywgJzxvdXRmaWxlLm1hZT4n

> <r_lp_tautomer_probability>
1

> <r_epik_Ionization_Penalty>
  0.0005

> <r_epik_Ionization_Penalty_Charging>
  0.0000

> <r_epik_Ionization_Penalty_Neutral>
  0.0005

> <r_epik_State_Penalty>
 -0.0000

> <r_epik_Charging_Adjusted_Penalty>
0

> <i_epik_Tot_Q>
0

> <i_epik_Tot_abs_Q>
0

> <s_epik_Chemistry_Notes>
This compound has an imine and may undergo hydrolysis.

> <s_lp_Force_Field>
OPLS3e

> <r_lp_Energy>
58.78236

> <b_lp_Chiralities_Consistent>
1

> <s_lp_Variant>
sdf/actives_sanitized.sdf:31-1

$$$$
sdf/actives_sanitized.sdf:32
                    3D
 Schrodinger Suite 2020-1.
 42 45  0  0  1  0            999 V2000
    4.4669    2.7782    0.0161 Cl  0  0  0  0  0  0
   -3.8863    3.8879   -0.9434 O   0  0  0  0  0  0
    2.1538   -1.0563    0.1675 N   0  0  0  0  0  0
    5.6502   -4.0862   -0.4241 N   0  0  0  0  0  0
    2.2292    1.3515    0.1894 N   0  0  0  0  0  0
    4.5034   -5.9951    0.5219 N   0  0  0  0  0  0
    0.1631    0.1465    0.3524 N   0  0  0  0  0  0
    4.1398   -2.4409   -0.0136 C   0  0  0  0  0  0
    3.6254   -3.6918    0.4972 C   0  0  0  0  0  0
    3.5084   -1.0886    0.0398 C   0  0  0  0  0  0
    4.5976   -4.6973    0.2152 C   0  0  0  0  0  0
    5.3820   -2.7469   -0.5541 C   0  0  0  0  0  0
    1.5625    0.1640    0.2323 C   0  0  0  0  0  0
    4.2691    0.0859   -0.0060 C   0  0  0  0  0  0
    3.5812    1.2990    0.0709 C   0  0  0  0  0  0
    2.4595   -4.1104    1.1678 C   0  0  0  0  0  0
   -0.6512    1.3487    0.1695 C   0  0  2  0  0  0
    2.3347   -5.4608    1.5006 C   0  0  0  0  0  0
    3.3585   -6.3470    1.1642 C   0  0  0  0  0  0
   -1.9892    1.1622    0.9132 C   0  0  0  0  0  0
   -0.8892    1.5796   -1.3394 C   0  0  0  0  0  0
   -3.1359    2.6998   -0.7972 C   0  0  2  0  0  0
   -2.9256    2.3679    0.6985 C   0  0  0  0  0  0
   -1.8080    2.7926   -1.5841 C   0  0  0  0  0  0
   -3.3867    4.6126   -0.5602 H   0  0  0  0  0  0
    6.5038   -4.5103   -0.7582 H   0  0  0  0  0  0
   -0.2921   -0.7454    0.2210 H   0  0  0  0  0  0
    6.1096   -2.1100   -1.0357 H   0  0  0  0  0  0
    5.3454    0.0616   -0.0939 H   0  0  0  0  0  0
    1.6766   -3.4115    1.4221 H   0  0  0  0  0  0
   -0.1198    2.2098    0.5779 H   0  0  0  0  0  0
    1.4531   -5.8165    2.0138 H   0  0  0  0  0  0
    3.2685   -7.3930    1.4187 H   0  0  0  0  0  0
   -2.4886    0.2532    0.5722 H   0  0  0  0  0  0
   -1.8101    1.0299    1.9814 H   0  0  0  0  0  0
    0.0602    1.7389   -1.8532 H   0  0  0  0  0  0
   -1.3353    0.6918   -1.7922 H   0  0  0  0  0  0
   -3.7478    1.9143   -1.2436 H   0  0  0  0  0  0
   -3.8877    2.1673    1.1726 H   0  0  0  0  0  0
   -2.5121    3.2373    1.2128 H   0  0  0  0  0  0
   -1.2776    3.7044   -1.3043 H   0  0  0  0  0  0
   -2.0146    2.8803   -2.6518 H   0  0  0  0  0  0
  1 15  1  0  0  0
  2 22  1  0  0  0
  2 25  1  0  0  0
  3 10  2  0  0  0
  3 13  1  0  0  0
  4 11  1  0  0  0
  4 12  1  0  0  0
  4 26  1  0  0  0
  5 13  2  0  0  0
  5 15  1  0  0  0
  6 11  2  0  0  0
  6 19  1  0  0  0
  7 13  1  0  0  0
  7 17  1  0  0  0
  7 27  1  0  0  0
  8  9  1  0  0  0
  8 10  1  0  0  0
  8 12  2  0  0  0
  9 11  1  0  0  0
  9 16  2  0  0  0
 10 14  1  0  0  0
 12 28  1  0  0  0
 14 15  2  0  0  0
 14 29  1  0  0  0
 16 18  1  0  0  0
 16 30  1  0  0  0
 17 20  1  0  0  0
 17 21  1  0  0  0
 17 31  1  0  0  0
 18 19  2  0  0  0
 18 32  1  0  0  0
 19 33  1  0  0  0
 20 23  1  0  0  0
 20 34  1  0  0  0
 20 35  1  0  0  0
 21 24  1  0  0  0
 21 36  1  0  0  0
 21 37  1  0  0  0
 22 23  1  0  0  0
 22 24  1  0  0  0
 22 38  1  0  0  0
 23 39  1  0  0  0
 23 40  1  0  0  0
 24 41  1  0  0  0
 24 42  1  0  0  0
M  END
> <chembl_id>
CHEMBL1986943

> <chembl_pref_name>
None

> <s_m_source_file>
sdf/actives_sanitized.sdf

> <i_m_source_file_index>
32

> <i_lp_mmshare_version>
49012

> <i_m_ct_stereo_status>
1

> <i_f3d_flags>
0

> <s_epik_input>
W0NIMl0xW0NIMl1bQ0BIXShbT0hdKVtDSDJdW0NIMl1bQ0BIXTFbTkhdYyhuYyhDbClbY0hdMiluYzItYzNbY0hdW25IXWMoYzM0KW5bY0hdW2NIXVtjSF00

> <s_epik_cmdline>
J2VwaWtfcHl0aG9uJywgJy1waHQnLCAnMC41JywgJy1waCcsICc3LjUnLCAnLW50JywgJy1tYScsICcyMDAnLCAnLWltYWUnLCAnPGluZmlsZS5tYWU+JywgJy1vbWFlJywgJzxvdXRmaWxlLm1hZT4n

> <r_lp_tautomer_probability>
1

> <r_epik_Ionization_Penalty>
  0.0003

> <r_epik_Ionization_Penalty_Charging>
  0.0000

> <r_epik_Ionization_Penalty_Neutral>
  0.0003

> <r_epik_State_Penalty>
 -0.0000

> <r_epik_Charging_Adjusted_Penalty>
0

> <i_epik_Tot_Q>
0

> <i_epik_Tot_abs_Q>
0

> <s_lp_Force_Field>
OPLS3e

> <r_lp_Energy>
33.72088

> <b_lp_Chiralities_Consistent>
1

> <s_lp_Variant>
sdf/actives_sanitized.sdf:32-1

$$$$
sdf/actives_sanitized.sdf:33
                    3D
 Schrodinger Suite 2020-1.
 58 62  0  0  1  0            999 V2000
   -3.9939    5.1052   -0.2311 Cl  0  0  0  0  0  0
   -4.6336    2.3680    0.9268 N   0  0  0  0  0  0
   -2.3467    1.6425    0.9700 N   0  0  0  0  0  0
    5.3805    0.1874    0.3637 N   0  0  0  0  0  0
   -0.1413    0.8913    1.0553 N   0  0  0  0  0  0
   -0.5790    3.0908    0.2167 N   0  0  0  0  0  0
   -8.0479   -1.6889    2.5027 N   0  0  0  0  0  0
   -9.1985   -1.0038    2.6353 N   0  0  0  0  0  0
    7.6010    0.4965    2.3219 N   0  3  0  0  0  0
   -3.2673    2.6044    0.6838 C   0  0  0  0  0  0
   -7.5635    0.4155    1.9803 C   0  0  0  0  0  0
   -5.3928    1.2498    1.3207 C   0  0  0  0  0  0
   -7.0046   -0.8774    2.1021 C   0  0  0  0  0  0
   -1.0406    1.9153    0.7203 C   0  0  0  0  0  0
   -2.8713    3.8435    0.1521 C   0  0  0  0  0  0
   -6.7466    1.4835    1.5835 C   0  0  0  0  0  0
    4.0067    0.3428    0.5333 C   0  0  0  0  0  0
    1.2413    0.7406    0.8520 C   0  0  0  0  0  0
   -4.8734   -0.0478    1.4440 C   0  0  0  0  0  0
   -5.6580   -1.1343    1.8369 C   0  0  0  0  0  0
   -8.9354    0.2412    2.3317 C   0  0  0  0  0  0
   -1.5062    4.0406   -0.0644 C   0  0  0  0  0  0
    3.3055   -0.2983    1.5641 C   0  0  0  0  0  0
    3.2991    1.1751   -0.3420 C   0  0  0  0  0  0
    1.9356   -0.1040    1.7179 C   0  0  0  0  0  0
    1.9292    1.3696   -0.1906 C   0  0  0  0  0  0
    6.2576    1.3703    0.3958 C   0  0  0  0  0  0
    6.1283   -0.9669    0.8950 C   0  0  0  0  0  0
    6.7746    1.6956    1.8129 C   0  0  0  0  0  0
    6.6920   -0.7519    2.3200 C   0  0  0  0  0  0
    8.1730    0.8054    3.7261 C   0  0  0  0  0  0
    9.1847   -0.2658    4.1642 C   0  0  0  0  0  0
   -5.1998    3.1898    0.7739 H   0  0  0  0  0  0
   -0.5775    0.1086    1.5206 H   0  0  0  0  0  0
   -8.0216   -2.6807    2.6907 H   0  0  0  0  0  0
   -7.1630    2.4762    1.4874 H   0  0  0  0  0  0
   -3.8398   -0.2588    1.2274 H   0  0  0  0  0  0
   -5.2351   -2.1242    1.9258 H   0  0  0  0  0  0
   -9.7096    0.9935    2.3642 H   0  0  0  0  0  0
   -1.1358    4.9715   -0.4685 H   0  0  0  0  0  0
    3.8082   -0.9524    2.2597 H   0  0  0  0  0  0
    3.8069    1.6716   -1.1564 H   0  0  0  0  0  0
    1.4187   -0.6095    2.5213 H   0  0  0  0  0  0
    1.4178    2.0010   -0.9008 H   0  0  0  0  0  0
    7.1012    1.2036   -0.2762 H   0  0  0  0  0  0
    5.7360    2.2428    0.0011 H   0  0  0  0  0  0
    5.4921   -1.8528    0.8818 H   0  0  0  0  0  0
    6.9502   -1.1892    0.2123 H   0  0  0  0  0  0
    5.9676    1.8732    2.5271 H   0  0  0  0  0  0
    7.4447    2.5562    1.8021 H   0  0  0  0  0  0
    7.3138   -1.5965    2.6148 H   0  0  0  0  0  0
    5.9178   -0.5952    3.0726 H   0  0  0  0  0  0
    8.6659    1.7744    3.6309 H   0  0  0  0  0  0
    7.3238    0.8965    4.4059 H   0  0  0  0  0  0
    9.6685    0.0268    5.0964 H   0  0  0  0  0  0
    9.9685   -0.4035    3.4185 H   0  0  0  0  0  0
    8.7114   -1.2312    4.3416 H   0  0  0  0  0  0
    8.3633    0.3473    1.6755 H   0  0  0  0  0  0
  1 15  1  0  0  0
  2 10  1  0  0  0
  2 12  1  0  0  0
  2 33  1  0  0  0
  3 10  2  0  0  0
  3 14  1  0  0  0
  4 17  1  0  0  0
  4 27  1  0  0  0
  4 28  1  0  0  0
  5 14  1  0  0  0
  5 18  1  0  0  0
  5 34  1  0  0  0
  6 14  2  0  0  0
  6 22  1  0  0  0
  7  8  1  0  0  0
  7 13  1  0  0  0
  7 35  1  0  0  0
  8 21  2  0  0  0
  9 29  1  0  0  0
  9 30  1  0  0  0
  9 31  1  0  0  0
  9 58  1  0  0  0
 10 15  1  0  0  0
 11 13  2  0  0  0
 11 16  1  0  0  0
 11 21  1  0  0  0
 12 16  2  0  0  0
 12 19  1  0  0  0
 13 20  1  0  0  0
 15 22  2  0  0  0
 16 36  1  0  0  0
 17 23  2  0  0  0
 17 24  1  0  0  0
 18 25  2  0  0  0
 18 26  1  0  0  0
 19 20  2  0  0  0
 19 37  1  0  0  0
 20 38  1  0  0  0
 21 39  1  0  0  0
 22 40  1  0  0  0
 23 25  1  0  0  0
 23 41  1  0  0  0
 24 26  2  0  0  0
 24 42  1  0  0  0
 25 43  1  0  0  0
 26 44  1  0  0  0
 27 29  1  0  0  0
 27 45  1  0  0  0
 27 46  1  0  0  0
 28 30  1  0  0  0
 28 47  1  0  0  0
 28 48  1  0  0  0
 29 49  1  0  0  0
 29 50  1  0  0  0
 30 51  1  0  0  0
 30 52  1  0  0  0
 31 32  1  0  0  0
 31 53  1  0  0  0
 31 54  1  0  0  0
 32 55  1  0  0  0
 32 56  1  0  0  0
 32 57  1  0  0  0
M  CHG  1   9   1
M  END
> <chembl_id>
CHEMBL1967998

> <chembl_pref_name>
None

> <s_m_source_file>
sdf/actives_sanitized.sdf

> <i_m_source_file_index>
33

> <i_lp_mmshare_version>
49012

> <i_m_ct_stereo_status>
1

> <i_f3d_flags>
0

> <s_epik_input>
W2NIXTFuW25IXWMoYzEyKVtjSF1bY0hdYyhbY0hdMilbTkhdYzNuYyhuW2NIXWMzQ2wpW05IXWMoW2NIXVtjSF00KVtjSF1bY0hdYzRONVtDSDJdW0NIMl1OKFtDSDJdW0NIMl01KVtDSDJdW0NIM10=

> <s_epik_cmdline>
J2VwaWtfcHl0aG9uJywgJy1waHQnLCAnMC41JywgJy1waCcsICc3LjUnLCAnLW50JywgJy1tYScsICcyMDAnLCAnLWltYWUnLCAnPGluZmlsZS5tYWU+JywgJy1vbWFlJywgJzxvdXRmaWxlLm1hZT4n

> <r_lp_tautomer_probability>
0.983170142140339

> <r_epik_Ionization_Penalty>
  0.2941

> <r_epik_Ionization_Penalty_Charging>
  0.2911

> <r_epik_Ionization_Penalty_Neutral>
  0.0029

> <r_epik_State_Penalty>
  0.2928

> <r_epik_Charging_Adjusted_Penalty>
0.583982106531941

> <i_epik_Tot_Q>
1

> <i_epik_Tot_abs_Q>
1

> <s_lp_Force_Field>
OPLS3e

> <r_lp_Energy>
55.232616

> <b_lp_Chiralities_Consistent>
1

> <s_lp_Variant>
sdf/actives_sanitized.sdf:33-1

$$$$
sdf/actives_sanitized.sdf:33
                    3D
 Schrodinger Suite 2020-1.
 57 61  0  0  1  0            999 V2000
   -3.5399    4.7898   -0.7464 Cl  0  0  0  0  0  0
   -4.0878    2.3538    0.9945 N   0  0  0  0  0  0
   -1.8993    1.4229    0.7122 N   0  0  0  0  0  0
    5.7010   -0.3121   -0.4276 N   0  0  0  0  0  0
    0.2125    0.4629    0.4557 N   0  0  0  0  0  0
   -0.2427    2.5443   -0.6280 N   0  0  0  0  0  0
   -6.3409   -0.5088    5.1667 N   0  0  0  0  0  0
   -5.2635   -1.0658    5.7497 N   0  0  0  0  0  0
    8.4761   -0.8508   -1.2923 N   0  0  0  0  0  0
   -2.7940    2.4147    0.4449 C   0  0  0  0  0  0
   -4.5889    0.1736    3.9815 C   0  0  0  0  0  0
   -4.6655    1.6201    2.0470 C   0  0  0  0  0  0
   -5.9972    0.2660    4.0761 C   0  0  0  0  0  0
   -0.6581    1.5257    0.1721 C   0  0  0  0  0  0
   -2.4429    3.5035   -0.3706 C   0  0  0  0  0  0
   -3.9182    0.8605    2.9590 C   0  0  0  0  0  0
    4.3360   -0.1208   -0.2133 C   0  0  0  0  0  0
    1.5888    0.3033    0.2239 C   0  0  0  0  0  0
   -6.0556    1.6962    2.1783 C   0  0  0  0  0  0
   -6.7556    1.0255    3.1826 C   0  0  0  0  0  0
   -4.2183   -0.6749    5.0669 C   0  0  0  0  0  0
   -1.1459    3.5231   -0.8871 C   0  0  0  0  0  0
    3.4337   -1.1957   -0.2074 C   0  0  0  0  0  0
    3.8373    1.1680    0.0207 C   0  0  0  0  0  0
    2.0754   -0.9859    0.0135 C   0  0  0  0  0  0
    2.4788    1.3806    0.2382 C   0  0  0  0  0  0
    6.3264   -1.6458   -0.3424 C   0  0  0  0  0  0
    6.4242    0.5333   -1.3970 C   0  0  0  0  0  0
    7.8655   -1.6120   -0.1993 C   0  0  0  0  0  0
    7.9591    0.5157   -1.2142 C   0  0  0  0  0  0
    9.9397   -0.8300   -1.2008 C   0  0  0  0  0  0
   10.5756   -2.1991   -1.5009 C   0  0  0  0  0  0
   -4.7255    3.0130    0.5723 H   0  0  0  0  0  0
   -0.2194   -0.3016    0.9541 H   0  0  0  0  0  0
   -7.2646   -0.6776    5.5384 H   0  0  0  0  0  0
   -2.8434    0.8021    2.9062 H   0  0  0  0  0  0
   -6.6233    2.2914    1.4767 H   0  0  0  0  0  0
   -7.8306    1.0973    3.2587 H   0  0  0  0  0  0
   -3.2247   -0.9932    5.3452 H   0  0  0  0  0  0
   -0.8122    4.3306   -1.5223 H   0  0  0  0  0  0
    3.7702   -2.2069   -0.3815 H   0  0  0  0  0  0
    4.5002    2.0198    0.0543 H   0  0  0  0  0  0
    1.4032   -1.8321    0.0107 H   0  0  0  0  0  0
    2.1338    2.3849    0.4338 H   0  0  0  0  0  0
    5.9137   -2.1916    0.5069 H   0  0  0  0  0  0
    6.0830   -2.2035   -1.2485 H   0  0  0  0  0  0
    6.1990    0.1681   -2.4006 H   0  0  0  0  0  0
    6.0837    1.5669   -1.3516 H   0  0  0  0  0  0
    8.2287   -2.6391   -0.2110 H   0  0  0  0  0  0
    8.1458   -1.1926    0.7691 H   0  0  0  0  0  0
    8.2309    0.9805   -0.2640 H   0  0  0  0  0  0
    8.4134    1.1226   -1.9989 H   0  0  0  0  0  0
   10.3260   -0.1207   -1.9349 H   0  0  0  0  0  0
   10.2602   -0.4705   -0.2211 H   0  0  0  0  0  0
   11.6609   -2.1111   -1.5541 H   0  0  0  0  0  0
   10.2327   -2.5964   -2.4571 H   0  0  0  0  0  0
   10.3515   -2.9357   -0.7297 H   0  0  0  0  0  0
  1 15  1  0  0  0
  2 10  1  0  0  0
  2 12  1  0  0  0
  2 33  1  0  0  0
  3 10  2  0  0  0
  3 14  1  0  0  0
  4 17  1  0  0  0
  4 27  1  0  0  0
  4 28  1  0  0  0
  5 14  1  0  0  0
  5 18  1  0  0  0
  5 34  1  0  0  0
  6 14  2  0  0  0
  6 22  1  0  0  0
  7  8  1  0  0  0
  7 13  1  0  0  0
  7 35  1  0  0  0
  8 21  2  0  0  0
  9 29  1  0  0  0
  9 30  1  0  0  0
  9 31  1  0  0  0
 10 15  1  0  0  0
 11 13  2  0  0  0
 11 16  1  0  0  0
 11 21  1  0  0  0
 12 16  2  0  0  0
 12 19  1  0  0  0
 13 20  1  0  0  0
 15 22  2  0  0  0
 16 36  1  0  0  0
 17 23  2  0  0  0
 17 24  1  0  0  0
 18 25  2  0  0  0
 18 26  1  0  0  0
 19 20  2  0  0  0
 19 37  1  0  0  0
 20 38  1  0  0  0
 21 39  1  0  0  0
 22 40  1  0  0  0
 23 25  1  0  0  0
 23 41  1  0  0  0
 24 26  2  0  0  0
 24 42  1  0  0  0
 25 43  1  0  0  0
 26 44  1  0  0  0
 27 29  1  0  0  0
 27 45  1  0  0  0
 27 46  1  0  0  0
 28 30  1  0  0  0
 28 47  1  0  0  0
 28 48  1  0  0  0
 29 49  1  0  0  0
 29 50  1  0  0  0
 30 51  1  0  0  0
 30 52  1  0  0  0
 31 32  1  0  0  0
 31 53  1  0  0  0
 31 54  1  0  0  0
 32 55  1  0  0  0
 32 56  1  0  0  0
 32 57  1  0  0  0
M  END
> <chembl_id>
CHEMBL1967998

> <chembl_pref_name>
None

> <s_m_source_file>
sdf/actives_sanitized.sdf

> <i_m_source_file_index>
33

> <i_lp_mmshare_version>
49012

> <i_m_ct_stereo_status>
1

> <i_f3d_flags>
0

> <s_epik_input>
W2NIXTFuW25IXWMoYzEyKVtjSF1bY0hdYyhbY0hdMilbTkhdYzNuYyhuW2NIXWMzQ2wpW05IXWMoW2NIXVtjSF00KVtjSF1bY0hdYzRONVtDSDJdW0NIMl1OKFtDSDJdW0NIMl01KVtDSDJdW0NIM10=

> <s_epik_cmdline>
J2VwaWtfcHl0aG9uJywgJy1waHQnLCAnMC41JywgJy1waCcsICc3LjUnLCAnLW50JywgJy1tYScsICcyMDAnLCAnLWltYWUnLCAnPGluZmlsZS5tYWU+JywgJy1vbWFlJywgJzxvdXRmaWxlLm1hZT4n

> <r_lp_tautomer_probability>
0.983170142140339

> <r_epik_Ionization_Penalty>
  0.5881

> <r_epik_Ionization_Penalty_Charging>
  0.0000

> <r_epik_Ionization_Penalty_Neutral>
  0.5881

> <r_epik_State_Penalty>
  0.5803

> <r_epik_Charging_Adjusted_Penalty>
0.580348970718937

> <i_epik_Tot_Q>
0

> <i_epik_Tot_abs_Q>
0

> <s_lp_Force_Field>
OPLS3e

> <r_lp_Energy>
54.411411

> <b_lp_Chiralities_Consistent>
1

> <s_lp_Variant>
sdf/actives_sanitized.sdf:33-2

$$$$
sdf/actives_sanitized.sdf:34
                    3D
 Schrodinger Suite 2020-1.
 41 45  0  0  1  0            999 V2000
   -0.6173   -0.4524    1.3181 C   0  0  0  0  0  0
   -1.5244   -1.5742    0.7894 C   0  0  0  0  0  0
   -1.0801   -1.8117   -0.6557 C   0  0  0  0  0  0
   -0.6849   -0.4200   -1.1524 C   0  0  0  0  0  0
   -0.0540    0.2707    0.0723 C   0  0  0  0  0  0
    1.4168    0.2739    0.0214 N   0  0  0  0  0  0
    2.0950   -0.8950   -0.0156 N   0  0  0  0  0  0
    2.2895    1.3470   -0.0070 C   0  0  0  0  0  0
    2.0001    2.6556    0.0103 N   0  0  0  0  0  0
    3.1030    3.4476   -0.0504 C   0  0  0  0  0  0
    4.4012    3.0587   -0.1346 N   0  0  0  0  0  0
    4.6472    1.7237   -0.1532 C   0  0  0  0  0  0
    5.9766    1.3298   -0.2781 N   0  0  0  0  0  0
    3.5915    0.7911   -0.0741 C   0  0  0  0  0  0
    3.3818   -0.6312   -0.0481 C   0  0  0  0  0  0
    4.3828   -1.7382   -0.0444 C   0  0  0  0  0  0
    5.5429   -1.6549    0.7356 C   0  0  0  0  0  0
    6.4603   -2.7173    0.6876 C   0  0  0  0  0  0
    7.7180   -3.0210    1.3050 C   0  0  0  0  0  0
    8.1127   -4.2562    0.8243 C   0  0  0  0  0  0
    7.1680   -4.7302   -0.0542 N   0  0  0  0  0  0
    6.1430   -3.8149   -0.1614 C   0  0  0  0  0  0
    5.0489   -3.9282   -0.9191 N   0  0  0  0  0  0
    4.1908   -2.8766   -0.8395 C   0  0  0  0  0  0
   -1.1848    0.2354    1.9464 H   0  0  0  0  0  0
    0.1734   -0.8628    1.9489 H   0  0  0  0  0  0
   -1.4565   -2.4795    1.3939 H   0  0  0  0  0  0
   -2.5661   -1.2489    0.8067 H   0  0  0  0  0  0
   -0.2185   -2.4811   -0.6807 H   0  0  0  0  0  0
   -1.8654   -2.2624   -1.2636 H   0  0  0  0  0  0
   -0.0265   -0.4527   -2.0221 H   0  0  0  0  0  0
   -1.5777    0.1271   -1.4598 H   0  0  0  0  0  0
   -0.3067    1.3319    0.0746 H   0  0  0  0  0  0
    2.9254    4.5130   -0.0368 H   0  0  0  0  0  0
    6.2021    0.3463   -0.3153 H   0  0  0  0  0  0
    6.6959    2.0354   -0.3435 H   0  0  0  0  0  0
    5.7237   -0.8027    1.3739 H   0  0  0  0  0  0
    8.2717   -2.4200    2.0113 H   0  0  0  0  0  0
    8.9933   -4.8459    1.0336 H   0  0  0  0  0  0
    7.2553   -5.6195   -0.5247 H   0  0  0  0  0  0
    3.3079   -2.9628   -1.4565 H   0  0  0  0  0  0
  1  2  1  0  0  0
  1  5  1  0  0  0
  1 25  1  0  0  0
  1 26  1  0  0  0
  2  3  1  0  0  0
  2 27  1  0  0  0
  2 28  1  0  0  0
  3  4  1  0  0  0
  3 29  1  0  0  0
  3 30  1  0  0  0
  4  5  1  0  0  0
  4 31  1  0  0  0
  4 32  1  0  0  0
  5  6  1  0  0  0
  5 33  1  0  0  0
  6  7  1  0  0  0
  6  8  1  0  0  0
  7 15  2  0  0  0
  8  9  2  0  0  0
  8 14  1  0  0  0
  9 10  1  0  0  0
 10 11  2  0  0  0
 10 34  1  0  0  0
 11 12  1  0  0  0
 12 13  1  0  0  0
 12 14  2  0  0  0
 13 35  1  0  0  0
 13 36  1  0  0  0
 14 15  1  0  0  0
 15 16  1  0  0  0
 16 17  2  0  0  0
 16 24  1  0  0  0
 17 18  1  0  0  0
 17 37  1  0  0  0
 18 19  1  0  0  0
 18 22  2  0  0  0
 19 20  2  0  0  0
 19 38  1  0  0  0
 20 21  1  0  0  0
 20 39  1  0  0  0
 21 22  1  0  0  0
 21 40  1  0  0  0
 22 23  1  0  0  0
 23 24  2  0  0  0
 24 41  1  0  0  0
M  END
> <chembl_id>
CHEMBL1081312

> <chembl_pref_name>
None

> <s_m_source_file>
sdf/actives_sanitized.sdf

> <i_m_source_file_index>
34

> <i_lp_mmshare_version>
49012

> <i_m_ct_stereo_status>
1

> <i_f3d_flags>
0

> <s_epik_input>
W0NIMl0xW0NIMl1bQ0gyXVtDSDJdW0NIXTFuMm5jKGMoYzIzKWMoW05IMl0pbltjSF1uMyktYyhbY0hdNClbY0hdbmMoYzQ1KVtuSF1bY0hdW2NIXTU=

> <s_epik_cmdline>
J2VwaWtfcHl0aG9uJywgJy1waHQnLCAnMC41JywgJy1waCcsICc3LjUnLCAnLW50JywgJy1tYScsICcyMDAnLCAnLWltYWUnLCAnPGluZmlsZS5tYWU+JywgJy1vbWFlJywgJzxvdXRmaWxlLm1hZT4n

> <r_lp_tautomer_probability>
1

> <r_epik_Ionization_Penalty>
  0.0008

> <r_epik_Ionization_Penalty_Charging>
  0.0000

> <r_epik_Ionization_Penalty_Neutral>
  0.0008

> <r_epik_State_Penalty>
 -0.0000

> <r_epik_Charging_Adjusted_Penalty>
0

> <i_epik_Tot_Q>
0

> <i_epik_Tot_abs_Q>
0

> <s_lp_Force_Field>
OPLS3e

> <r_lp_Energy>
36.21094

> <b_lp_Chiralities_Consistent>
1

> <s_lp_Variant>
sdf/actives_sanitized.sdf:34-1

$$$$
sdf/actives_sanitized.sdf:35
                    3D
 Schrodinger Suite 2020-1.
 60 64  0  0  1  0            999 V2000
   -2.9134    0.0094    0.4235 N   0  0  0  0  0  0
    5.1116   -1.2960   -6.4438 N   0  0  0  0  0  0
   -0.9062    1.3547    0.5067 C   0  0  0  0  0  0
   -0.1076    0.2421    0.2445 C   0  0  0  0  0  0
   -0.6772   -3.4572   -0.3039 C   0  0  0  0  0  0
   -2.0740   -3.5117   -0.2204 C   0  0  0  0  0  0
   -2.8061   -2.3394    0.0226 C   0  0  0  0  0  0
   -4.0775   -4.8796   -0.3185 C   0  0  0  0  0  0
    3.0216   -0.4426   -1.2026 C   0  0  0  0  0  0
    3.2052    0.1786   -3.5538 C   0  0  0  0  0  0
    1.3894    1.0400   -2.1750 C   0  0  0  0  0  0
    5.2664   -0.3043   -7.2544 C   0  0  0  0  0  0
    4.4479   -1.1136   -5.2693 C   0  0  0  0  0  0
    4.9358    2.1237   -7.8119 C   0  0  0  0  0  0
    7.3045   -1.2736  -10.2983 C   0  0  0  0  0  0
    7.7935   -3.6124  -10.5899 C   0  0  0  0  0  0
    6.4292   -2.8935   -8.7386 C   0  0  0  0  0  0
   -2.6609   -4.7547   -0.3853 O   0  0  0  0  0  0
   -0.0176   -4.6512   -0.5413 O   0  0  0  0  0  0
    1.4030   -4.6636   -0.6405 C   0  0  0  0  0  0
   -0.0148   -2.2304   -0.1482 C   0  0  0  0  0  0
   -0.7322   -1.0329    0.0868 C   0  0  0  0  0  0
   -2.1545   -1.0957    0.1808 C   0  0  0  0  0  0
   -2.2857    1.1985    0.5843 C   0  0  0  0  0  0
    1.2561    0.4139    0.1666 O   0  0  0  0  0  0
    1.8735    0.3407   -1.0637 C   0  0  0  0  0  0
    3.6716   -0.5272   -2.4340 C   0  0  0  0  0  0
    3.5113   -1.1267   -0.1424 F   0  0  0  0  0  0
    2.0441    0.9534   -3.4028 C   0  0  0  0  0  0
    3.9082    0.0653   -4.8675 C   0  0  0  0  0  0
    4.1104    1.2347   -5.7351 C   0  0  0  0  0  0
    3.7415    2.3670   -5.4078 O   0  0  0  0  0  0
    4.7670    0.9546   -6.9210 N   0  0  0  0  0  0
    5.9640   -0.4618   -8.4943 N   0  0  0  0  0  0
    6.5557   -1.5576   -9.1516 C   0  0  0  0  0  0
    7.9244   -2.2938  -11.0149 C   0  0  0  0  0  0
    8.3928   -4.6054  -11.2850 F   0  0  0  0  0  0
    7.0470   -3.9154   -9.4552 C   0  0  0  0  0  0
   -0.4600    2.3294    0.6406 H   0  0  0  0  0  0
   -3.8834   -2.3585    0.0963 H   0  0  0  0  0  0
   -4.3537   -5.9222   -0.4748 H   0  0  0  0  0  0
   -4.5682   -4.2889   -1.0935 H   0  0  0  0  0  0
   -4.4605   -4.5800    0.6582 H   0  0  0  0  0  0
    0.5032    1.6515   -2.0907 H   0  0  0  0  0  0
    4.3442   -1.9975   -4.6564 H   0  0  0  0  0  0
    5.5947    2.8611   -7.3507 H   0  0  0  0  0  0
    3.9758    2.6063   -8.0040 H   0  0  0  0  0  0
    5.3578    1.8794   -8.7862 H   0  0  0  0  0  0
    7.4140   -0.2544  -10.6405 H   0  0  0  0  0  0
    5.8510   -3.1718   -7.8727 H   0  0  0  0  0  0
    1.7410   -5.6817   -0.8326 H   0  0  0  0  0  0
    1.8718   -4.3304    0.2868 H   0  0  0  0  0  0
    1.7526   -4.0390   -1.4641 H   0  0  0  0  0  0
    1.0603   -2.1753   -0.2014 H   0  0  0  0  0  0
   -2.9210    2.0498    0.7807 H   0  0  0  0  0  0
    4.5598   -1.1376   -2.5061 H   0  0  0  0  0  0
    1.6313    1.4925   -4.2427 H   0  0  0  0  0  0
    6.0890    0.4003   -9.0036 H   0  0  0  0  0  0
    8.5036   -2.0631  -11.8970 H   0  0  0  0  0  0
    6.9446   -4.9409   -9.1322 H   0  0  0  0  0  0
  1 23  2  0  0  0
  1 24  1  0  0  0
  2 12  2  0  0  0
  2 13  1  0  0  0
  3  4  1  0  0  0
  3 24  2  0  0  0
  3 39  1  0  0  0
  4 22  2  0  0  0
  4 25  1  0  0  0
  5  6  1  0  0  0
  5 19  1  0  0  0
  5 21  2  0  0  0
  6  7  2  0  0  0
  6 18  1  0  0  0
  7 23  1  0  0  0
  7 40  1  0  0  0
  8 18  1  0  0  0
  8 41  1  0  0  0
  8 42  1  0  0  0
  8 43  1  0  0  0
  9 26  2  0  0  0
  9 27  1  0  0  0
  9 28  1  0  0  0
 10 27  2  0  0  0
 10 29  1  0  0  0
 10 30  1  0  0  0
 11 26  1  0  0  0
 11 29  2  0  0  0
 11 44  1  0  0  0
 12 33  1  0  0  0
 12 34  1  0  0  0
 13 30  2  0  0  0
 13 45  1  0  0  0
 14 33  1  0  0  0
 14 46  1  0  0  0
 14 47  1  0  0  0
 14 48  1  0  0  0
 15 35  2  0  0  0
 15 36  1  0  0  0
 15 49  1  0  0  0
 16 36  2  0  0  0
 16 37  1  0  0  0
 16 38  1  0  0  0
 17 35  1  0  0  0
 17 38  2  0  0  0
 17 50  1  0  0  0
 19 20  1  0  0  0
 20 51  1  0  0  0
 20 52  1  0  0  0
 20 53  1  0  0  0
 21 22  1  0  0  0
 21 54  1  0  0  0
 22 23  1  0  0  0
 24 55  1  0  0  0
 25 26  1  0  0  0
 27 56  1  0  0  0
 29 57  1  0  0  0
 30 31  1  0  0  0
 31 32  2  0  0  0
 31 33  1  0  0  0
 34 35  1  0  0  0
 34 58  1  0  0  0
 36 59  1  0  0  0
 38 60  1  0  0  0
M  END
> <chembl_id>
CHEMBL461831

> <chembl_pref_name>
None

> <s_m_source_file>
sdf/actives_sanitized.sdf

> <i_m_source_file_index>
35

> <i_lp_mmshare_version>
49012

> <i_m_ct_stereo_status>
1

> <i_f3d_flags>
0

> <s_epik_input>
W0NIM11PYyhbY0hdMSljKE9bQ0gzXSlbY0hdYyhjMTIpbltjSF1bY0hdYzJPYyhjM0YpW2NIXVtjSF1jKFtjSF0zKS1jKGMoPU8pbjRbQ0gzXSlbY0hdbmM0W05IXWMoW2NIXVtjSF01KVtjSF1bY0hdYzVG

> <s_epik_cmdline>
J2VwaWtfcHl0aG9uJywgJy1waHQnLCAnMC41JywgJy1waCcsICc3LjUnLCAnLW50JywgJy1tYScsICcyMDAnLCAnLWltYWUnLCAnPGluZmlsZS5tYWU+JywgJy1vbWFlJywgJzxvdXRmaWxlLm1hZT4n

> <r_lp_tautomer_probability>
0.999692524845118

> <r_epik_Ionization_Penalty>
  0.0525

> <r_epik_Ionization_Penalty_Charging>
  0.0000

> <r_epik_Ionization_Penalty_Neutral>
  0.0525

> <r_epik_State_Penalty>
  0.0450

> <r_epik_Charging_Adjusted_Penalty>
0.045019993876204

> <i_epik_Tot_Q>
0

> <i_epik_Tot_abs_Q>
0

> <s_epik_Chemistry_Notes>
This compound has an imine and may undergo hydrolysis.

> <s_lp_Force_Field>
OPLS3e

> <r_lp_Energy>
66.806665

> <b_lp_Chiralities_Consistent>
1

> <s_lp_Variant>
sdf/actives_sanitized.sdf:35-1

$$$$
sdf/actives_sanitized.sdf:36
                    3D
 Schrodinger Suite 2020-1.
 78 83  0  0  1  0            999 V2000
   -1.2882    3.3525   -0.0326 C   0  0  0  0  0  0
   -2.6198    3.5877    0.3314 C   0  0  0  0  0  0
   -3.4075    2.5364    0.8244 C   0  0  0  0  0  0
   -0.7441    2.0655    0.0973 C   0  0  0  0  0  0
   -1.5206    0.9905    0.5932 C   0  0  0  0  0  0
   -2.8764    1.2346    0.9622 C   0  0  0  0  0  0
   -3.6830    0.2487    1.4454 N   0  0  0  0  0  0
   -3.1701   -0.9984    1.5709 C   0  0  0  0  0  0
   -1.8611   -1.3269    1.2359 C   0  0  0  0  0  0
   -1.0100   -0.3299    0.7487 C   0  0  0  0  0  0
   -0.5723    4.4363   -0.5125 O   0  0  0  0  0  0
    0.7860    4.2660   -0.9034 C   0  0  0  0  0  0
   -3.0869    4.8813    0.1770 O   0  0  0  0  0  0
   -4.4389    5.1946    0.5041 C   0  0  0  0  0  0
    0.2876   -0.6170    0.3820 O   0  0  0  0  0  0
    1.1450   -1.2491    1.2577 C   0  0  0  0  0  0
    2.1510   -2.0671    0.7395 C   0  0  0  0  0  0
    3.0522   -2.6949    1.6008 C   0  0  0  0  0  0
    2.9339   -2.4817    2.9816 C   0  0  0  0  0  0
    1.9666   -1.6749    3.5010 N   0  0  0  0  0  0
    1.0985   -1.0738    2.6484 C   0  0  0  0  0  0
    3.8439   -3.1074    3.9802 C   0  0  0  0  0  0
    4.1850   -4.5330    3.9036 C   0  0  0  0  0  0
    5.0769   -4.9534    4.8748 N   0  0  0  0  0  0
    5.5796   -4.1256    5.8784 C   0  0  0  0  0  0
    5.2207   -2.8867    5.9385 N   0  0  0  0  0  0
    4.3739   -2.3831    4.9986 C   0  0  0  0  0  0
    6.4635   -4.6789    6.8574 N   0  0  0  0  0  0
    7.2883   -4.0977    7.8383 C   0  0  0  0  0  0
    7.7727   -4.9361    8.8469 C   0  0  0  0  0  0
    8.6007   -4.4362    9.8485 C   0  0  0  0  0  0
    8.9561   -3.0903    9.8421 C   0  0  0  0  0  0
    8.4925   -2.2439    8.8388 C   0  0  0  0  0  0
    7.6644   -2.7456    7.8380 C   0  0  0  0  0  0
   -4.6989    6.6841    0.2314 C   0  0  0  0  0  0
   -4.4381    7.0898   -1.2361 C   0  0  0  0  0  0
   -4.9820    8.4068   -1.5819 N   0  0  0  0  0  0
   -4.8922    8.6285   -3.0312 C   0  0  0  0  0  0
   -5.3999   10.0312   -3.4268 C   0  0  0  0  0  0
   -4.7034   11.0277   -2.6873 O   0  0  0  0  0  0
   -4.8838   10.8821   -1.2834 C   0  0  0  0  0  0
   -4.3656    9.5037   -0.8194 C   0  0  0  0  0  0
    9.7610   -2.6032   10.8134 F   0  0  0  0  0  0
    5.4456   -6.3826    4.7814 C   0  0  0  0  0  0
    3.6934   -5.2775    3.0493 O   0  0  0  0  0  0
   -4.4367    2.6946    1.1110 H   0  0  0  0  0  0
    0.2807    1.8648   -0.1767 H   0  0  0  0  0  0
   -3.8422   -1.7539    1.9506 H   0  0  0  0  0  0
   -1.5099   -2.3421    1.3506 H   0  0  0  0  0  0
    1.1796    5.2181   -1.2590 H   0  0  0  0  0  0
    0.8811    3.5459   -1.7175 H   0  0  0  0  0  0
    1.4063    3.9452   -0.0652 H   0  0  0  0  0  0
   -5.1273    4.5874   -0.0867 H   0  0  0  0  0  0
   -4.6285    4.9827    1.5580 H   0  0  0  0  0  0
    2.2327   -2.2168   -0.3272 H   0  0  0  0  0  0
    3.8300   -3.3275    1.1986 H   0  0  0  0  0  0
    0.3579   -0.4336    3.1048 H   0  0  0  0  0  0
    4.1442   -1.3313    5.0938 H   0  0  0  0  0  0
    6.3865   -5.6795    6.9607 H   0  0  0  0  0  0
    7.5051   -5.9832    8.8623 H   0  0  0  0  0  0
    8.9663   -5.0903   10.6263 H   0  0  0  0  0  0
    8.7775   -1.2022    8.8333 H   0  0  0  0  0  0
    7.3371   -2.0695    7.0638 H   0  0  0  0  0  0
   -5.7018    6.9747    0.5484 H   0  0  0  0  0  0
   -4.0091    7.2348    0.8726 H   0  0  0  0  0  0
   -3.3637    7.0794   -1.4302 H   0  0  0  0  0  0
   -4.8582    6.3245   -1.8914 H   0  0  0  0  0  0
   -3.8584    8.5046   -3.3595 H   0  0  0  0  0  0
   -5.4676    7.8621   -3.5525 H   0  0  0  0  0  0
   -5.2286   10.2029   -4.4896 H   0  0  0  0  0  0
   -6.4763   10.1183   -3.2672 H   0  0  0  0  0  0
   -4.3333   11.6754   -0.7775 H   0  0  0  0  0  0
   -5.9342   11.0153   -1.0174 H   0  0  0  0  0  0
   -4.5633    9.3762    0.2452 H   0  0  0  0  0  0
   -3.2808    9.4618   -0.9327 H   0  0  0  0  0  0
    6.2080   -6.6891    5.4972 H   0  0  0  0  0  0
    5.8383   -6.6168    3.7902 H   0  0  0  0  0  0
    4.5712   -7.0128    4.9527 H   0  0  0  0  0  0
  1 11  1  0  0  0
  1  2  2  0  0  0
  1  4  1  0  0  0
  2  3  1  0  0  0
  2 13  1  0  0  0
  3  6  2  0  0  0
  3 46  1  0  0  0
  4  5  2  0  0  0
  4 47  1  0  0  0
  5 10  1  0  0  0
  5  6  1  0  0  0
  6  7  1  0  0  0
  7  8  2  0  0  0
  8  9  1  0  0  0
  8 48  1  0  0  0
  9 10  2  0  0  0
  9 49  1  0  0  0
 10 15  1  0  0  0
 11 12  1  0  0  0
 12 50  1  0  0  0
 12 51  1  0  0  0
 12 52  1  0  0  0
 13 14  1  0  0  0
 14 35  1  0  0  0
 14 53  1  0  0  0
 14 54  1  0  0  0
 15 16  1  0  0  0
 16 17  2  0  0  0
 16 21  1  0  0  0
 17 18  1  0  0  0
 17 55  1  0  0  0
 18 19  2  0  0  0
 18 56  1  0  0  0
 19 22  1  0  0  0
 19 20  1  0  0  0
 20 21  2  0  0  0
 21 57  1  0  0  0
 22 23  1  0  0  0
 22 27  2  0  0  0
 23 24  1  0  0  0
 23 45  2  0  0  0
 24 25  1  0  0  0
 24 44  1  0  0  0
 25 26  2  0  0  0
 25 28  1  0  0  0
 26 27  1  0  0  0
 27 58  1  0  0  0
 28 29  1  0  0  0
 28 59  1  0  0  0
 29 30  2  0  0  0
 29 34  1  0  0  0
 30 31  1  0  0  0
 30 60  1  0  0  0
 31 32  2  0  0  0
 31 61  1  0  0  0
 32 33  1  0  0  0
 32 43  1  0  0  0
 33 34  2  0  0  0
 33 62  1  0  0  0
 34 63  1  0  0  0
 35 36  1  0  0  0
 35 64  1  0  0  0
 35 65  1  0  0  0
 36 37  1  0  0  0
 36 66  1  0  0  0
 36 67  1  0  0  0
 37 38  1  0  0  0
 37 42  1  0  0  0
 38 39  1  0  0  0
 38 68  1  0  0  0
 38 69  1  0  0  0
 39 40  1  0  0  0
 39 70  1  0  0  0
 39 71  1  0  0  0
 40 41  1  0  0  0
 41 42  1  0  0  0
 41 72  1  0  0  0
 41 73  1  0  0  0
 42 74  1  0  0  0
 42 75  1  0  0  0
 44 76  1  0  0  0
 44 77  1  0  0  0
 44 78  1  0  0  0
M  END
> <chembl_id>
CHEMBL447602

> <chembl_pref_name>
None

> <s_m_source_file>
sdf/actives_sanitized.sdf

> <i_m_source_file_index>
36

> <i_lp_mmshare_version>
49012

> <i_m_ct_stereo_status>
1

> <i_f3d_flags>
0

> <s_epik_input>
W0NIMl0xW0NIMl1PW0NIMl1bQ0gyXU4xW0NIMl1bQ0gyXVtDSDJdT2MoYyhbY0hdMilPW0NIM10pW2NIXWMoYzIzKW5bY0hdW2NIXWMzT2M0W2NIXVtjSF1jKG5bY0hdNCktYzVjKD1PKW4oW0NIM10pYyhuW2NIXTUpW05IXWM2W2NIXVtjSF1jKEYpW2NIXVtjSF02

> <s_epik_cmdline>
J2VwaWtfcHl0aG9uJywgJy1waHQnLCAnMC41JywgJy1waCcsICc3LjUnLCAnLW50JywgJy1tYScsICcyMDAnLCAnLWltYWUnLCAnPGluZmlsZS5tYWU+JywgJy1vbWFlJywgJzxvdXRmaWxlLm1hZT4n

> <r_lp_tautomer_probability>
0.999692524845118

> <r_epik_Ionization_Penalty>
  0.3226

> <r_epik_Ionization_Penalty_Charging>
  0.0000

> <r_epik_Ionization_Penalty_Neutral>
  0.3226

> <r_epik_State_Penalty>
  0.2987

> <r_epik_Charging_Adjusted_Penalty>
0.298682845253816

> <i_epik_Tot_Q>
0

> <i_epik_Tot_abs_Q>
0

> <s_epik_Chemistry_Notes>
This compound has an imine and may undergo hydrolysis.

> <s_lp_Force_Field>
OPLS3e

> <r_lp_Energy>
75.816434

> <b_lp_Chiralities_Consistent>
1

> <s_lp_Variant>
sdf/actives_sanitized.sdf:36-1

$$$$
sdf/actives_sanitized.sdf:37
                    3D
 Schrodinger Suite 2020-1.
 79 84  0  0  1  0            999 V2000
   -1.2487    3.5086    0.0414 C   0  0  0  0  0  0
   -2.6394    3.3720   -0.0511 C   0  0  0  0  0  0
   -3.2195    2.0942   -0.0443 C   0  0  0  0  0  0
   -0.4391    2.3672    0.1467 C   0  0  0  0  0  0
   -1.0042    1.0690    0.1639 C   0  0  0  0  0  0
   -2.4204    0.9345    0.0637 C   0  0  0  0  0  0
   -3.0338   -0.2818    0.0710 N   0  0  0  0  0  0
   -2.2627   -1.3899    0.1798 C   0  0  0  0  0  0
   -0.8766   -1.3533    0.2863 C   0  0  0  0  0  0
   -0.2235   -0.1161    0.2867 C   0  0  0  0  0  0
    1.1492   -0.0265    0.3689 O   0  0  0  0  0  0
    1.8041   -0.7153    1.3626 C   0  0  0  0  0  0
    2.6717   -1.7582    1.0340 C   0  0  0  0  0  0
    3.3522   -2.4452    2.0399 C   0  0  0  0  0  0
    3.1791   -2.1143    3.3936 C   0  0  0  0  0  0
    2.3079   -1.0575    3.7044 C   0  0  0  0  0  0
    1.6250   -0.3679    2.7034 C   0  0  0  0  0  0
    2.8583   -2.1065   -0.2600 F   0  0  0  0  0  0
    3.9467   -2.8333    4.4550 C   0  0  0  0  0  0
    3.3311   -3.1968    5.7394 C   0  0  0  0  0  0
    4.1948   -3.8138    6.6277 N   0  0  0  0  0  0
    5.5133   -4.1514    6.3222 C   0  0  0  0  0  0
    5.9978   -3.8737    5.1592 N   0  0  0  0  0  0
    5.2287   -3.2254    4.2421 C   0  0  0  0  0  0
    2.1376   -2.9870    5.9781 O   0  0  0  0  0  0
    6.3001   -4.8224    7.3122 N   0  0  0  0  0  0
    7.6361   -5.2648    7.3648 C   0  0  0  0  0  0
    8.0024   -6.0284    8.4780 C   0  0  0  0  0  0
    9.3026   -6.5066    8.6176 C   0  0  0  0  0  0
   10.2513   -6.2191    7.6411 C   0  0  0  0  0  0
    9.9078   -5.4553    6.5297 C   0  0  0  0  0  0
    8.6068   -4.9780    6.3917 C   0  0  0  0  0  0
   -0.7461    4.7988    0.0267 O   0  0  0  0  0  0
    0.6584    5.0094    0.1279 C   0  0  0  0  0  0
   -3.3751    4.5412   -0.1429 O   0  0  0  0  0  0
   -4.7973    4.4817   -0.2076 C   0  0  0  0  0  0
    3.5892   -4.1333    7.9390 C   0  0  0  0  0  0
   11.5148   -6.6820    7.7743 F   0  0  0  0  0  0
   -5.3473    5.9145   -0.2310 C   0  0  0  0  0  0
   -6.8858    5.9623   -0.3429 C   0  0  0  0  0  0
   -7.4478    7.2819   -0.0378 N   0  0  0  0  0  0
   -8.9110    7.2027    0.0646 C   0  0  0  0  0  0
   -9.5414    8.5873    0.3262 C   0  0  0  0  0  0
   -9.1189    9.5120   -0.6698 O   0  0  0  0  0  0
   -7.7055    9.6755   -0.6899 C   0  0  0  0  0  0
   -7.0182    8.3244   -0.9823 C   0  0  0  0  0  0
   -4.2891    1.9649   -0.1185 H   0  0  0  0  0  0
    0.6343    2.4524    0.2226 H   0  0  0  0  0  0
   -2.7846   -2.3356    0.1778 H   0  0  0  0  0  0
   -0.3159   -2.2734    0.3634 H   0  0  0  0  0  0
    4.0140   -3.2506    1.7564 H   0  0  0  0  0  0
    2.1643   -0.7473    4.7289 H   0  0  0  0  0  0
    0.9633    0.4438    2.9683 H   0  0  0  0  0  0
    5.7209   -2.9975    3.3074 H   0  0  0  0  0  0
    5.7888   -5.0539    8.1507 H   0  0  0  0  0  0
    7.2764   -6.2589    9.2447 H   0  0  0  0  0  0
    9.5741   -7.0973    9.4801 H   0  0  0  0  0  0
   10.6487   -5.2307    5.7768 H   0  0  0  0  0  0
    8.3860   -4.3805    5.5227 H   0  0  0  0  0  0
    0.8640    6.0795    0.1002 H   0  0  0  0  0  0
    1.1943    4.5496   -0.7038 H   0  0  0  0  0  0
    1.0537    4.6221    1.0681 H   0  0  0  0  0  0
   -5.1109    3.9449   -1.1051 H   0  0  0  0  0  0
   -5.1917    3.9547    0.6633 H   0  0  0  0  0  0
    4.3011   -4.5085    8.6737 H   0  0  0  0  0  0
    2.8129   -4.8915    7.8241 H   0  0  0  0  0  0
    3.1287   -3.2474    8.3805 H   0  0  0  0  0  0
   -4.9948    6.4929    0.6248 H   0  0  0  0  0  0
   -4.9227    6.3890   -1.1170 H   0  0  0  0  0  0
   -7.1872    5.6633   -1.3487 H   0  0  0  0  0  0
   -7.3110    5.2091    0.3230 H   0  0  0  0  0  0
   -9.3213    6.7780   -0.8537 H   0  0  0  0  0  0
   -9.1823    6.5118    0.8642 H   0  0  0  0  0  0
  -10.6284    8.5129    0.2930 H   0  0  0  0  0  0
   -9.2854    8.9533    1.3223 H   0  0  0  0  0  0
   -7.4490   10.3983   -1.4644 H   0  0  0  0  0  0
   -7.3562   10.0960    0.2551 H   0  0  0  0  0  0
   -5.9358    8.4460   -0.9388 H   0  0  0  0  0  0
   -7.2463    8.0084   -2.0020 H   0  0  0  0  0  0
  1  2  2  0  0  0
  1 33  1  0  0  0
  1  4  1  0  0  0
  2  3  1  0  0  0
  2 35  1  0  0  0
  3  6  2  0  0  0
  3 47  1  0  0  0
  4  5  2  0  0  0
  4 48  1  0  0  0
  5  6  1  0  0  0
  5 10  1  0  0  0
  6  7  1  0  0  0
  7  8  2  0  0  0
  8  9  1  0  0  0
  8 49  1  0  0  0
  9 10  2  0  0  0
  9 50  1  0  0  0
 10 11  1  0  0  0
 11 12  1  0  0  0
 12 13  2  0  0  0
 12 17  1  0  0  0
 13 14  1  0  0  0
 13 18  1  0  0  0
 14 15  2  0  0  0
 14 51  1  0  0  0
 15 16  1  0  0  0
 15 19  1  0  0  0
 16 17  2  0  0  0
 16 52  1  0  0  0
 17 53  1  0  0  0
 19 24  2  0  0  0
 19 20  1  0  0  0
 20 25  2  0  0  0
 20 21  1  0  0  0
 21 22  1  0  0  0
 21 37  1  0  0  0
 22 23  2  0  0  0
 22 26  1  0  0  0
 23 24  1  0  0  0
 24 54  1  0  0  0
 26 27  1  0  0  0
 26 55  1  0  0  0
 27 28  2  0  0  0
 27 32  1  0  0  0
 28 29  1  0  0  0
 28 56  1  0  0  0
 29 30  2  0  0  0
 29 57  1  0  0  0
 30 31  1  0  0  0
 30 38  1  0  0  0
 31 32  2  0  0  0
 31 58  1  0  0  0
 32 59  1  0  0  0
 33 34  1  0  0  0
 34 60  1  0  0  0
 34 61  1  0  0  0
 34 62  1  0  0  0
 35 36  1  0  0  0
 36 39  1  0  0  0
 36 63  1  0  0  0
 36 64  1  0  0  0
 37 65  1  0  0  0
 37 66  1  0  0  0
 37 67  1  0  0  0
 39 40  1  0  0  0
 39 68  1  0  0  0
 39 69  1  0  0  0
 40 41  1  0  0  0
 40 70  1  0  0  0
 40 71  1  0  0  0
 41 42  1  0  0  0
 41 46  1  0  0  0
 42 43  1  0  0  0
 42 72  1  0  0  0
 42 73  1  0  0  0
 43 44  1  0  0  0
 43 74  1  0  0  0
 43 75  1  0  0  0
 44 45  1  0  0  0
 45 46  1  0  0  0
 45 76  1  0  0  0
 45 77  1  0  0  0
 46 78  1  0  0  0
 46 79  1  0  0  0
M  END
> <chembl_id>
CHEMBL453737

> <chembl_pref_name>
None

> <s_m_source_file>
sdf/actives_sanitized.sdf

> <i_m_source_file_index>
37

> <i_lp_mmshare_version>
49012

> <i_m_ct_stereo_status>
1

> <i_f3d_flags>
0

> <s_epik_input>
W0NIMl0xW0NIMl1PW0NIMl1bQ0gyXU4xW0NIMl1bQ0gyXVtDSDJdT2MoYyhbY0hdMilPW0NIM10pW2NIXWMoYzIzKW5bY0hdW2NIXWMzT2M0YyhGKVtjSF1jKFtjSF1bY0hdNCktYzVjKD1PKW4oW0NIM10pYyhuW2NIXTUpW05IXWM2W2NIXVtjSF1jKEYpW2NIXVtjSF02

> <s_epik_cmdline>
J2VwaWtfcHl0aG9uJywgJy1waHQnLCAnMC41JywgJy1waCcsICc3LjUnLCAnLW50JywgJy1tYScsICcyMDAnLCAnLWltYWUnLCAnPGluZmlsZS5tYWU+JywgJy1vbWFlJywgJzxvdXRmaWxlLm1hZT4n

> <r_lp_tautomer_probability>
0.999692524845118

> <r_epik_Ionization_Penalty>
  0.2162

> <r_epik_Ionization_Penalty_Charging>
  0.0000

> <r_epik_Ionization_Penalty_Neutral>
  0.2162

> <r_epik_State_Penalty>
  0.2008

> <r_epik_Charging_Adjusted_Penalty>
0.200779975388545

> <i_epik_Tot_Q>
0

> <i_epik_Tot_abs_Q>
0

> <s_epik_Chemistry_Notes>
This compound has an imine and may undergo hydrolysis.

> <s_lp_Force_Field>
OPLS3e

> <r_lp_Energy>
72.078342

> <b_lp_Chiralities_Consistent>
1

> <s_lp_Variant>
sdf/actives_sanitized.sdf:37-1

$$$$
sdf/actives_sanitized.sdf:38
                    3D
 Schrodinger Suite 2020-1.
 67 71  0  0  1  0            999 V2000
   -2.5811   -1.4321    0.5373 C   0  0  0  0  0  0
   -1.1337   -1.3860    0.2923 C   0  0  0  0  0  0
   -0.3897   -0.2844    0.6125 C   0  0  0  0  0  0
   -1.0108    0.9016    1.2288 C   0  0  0  0  0  0
   -2.3545    0.8028    1.4275 N   0  0  0  0  0  0
   -3.0824   -0.3059    1.0958 C   0  0  0  0  0  0
   -0.4146    1.9282    1.5594 O   0  0  0  0  0  0
    0.9683   -0.1626    0.4120 N   0  0  0  0  0  0
    1.8585   -0.9782   -0.2056 C   0  0  0  0  0  0
    3.2916   -0.4830   -0.2250 C   0  0  0  0  0  0
    1.5716   -2.0426   -0.7568 O   0  0  0  0  0  0
    4.2105   -1.0463   -1.1185 C   0  0  0  0  0  0
    5.5300   -0.6044   -1.1552 C   0  0  0  0  0  0
    5.9748    0.4147   -0.3053 C   0  0  0  0  0  0
    5.0595    0.9577    0.6074 C   0  0  0  0  0  0
    3.7376    0.5226    0.6453 C   0  0  0  0  0  0
    7.3118    0.8607   -0.3420 N   0  0  0  0  0  0
    7.9307    1.6387    0.7338 C   0  0  0  0  0  0
    9.3930    1.9184    0.4079 C   0  0  0  0  0  0
    9.5039    1.6269   -1.0779 C   0  0  0  0  0  0
    8.0709    1.2920   -1.5284 C   0  0  1  0  0  0
    8.0261    0.4199   -2.8094 C   0  0  0  0  0  0
    8.9358    0.9875   -3.9231 N   0  3  0  0  0  0
    9.0372    0.0674   -5.1492 C   0  0  0  0  0  0
    9.6004    0.9876   -6.2255 C   0  0  0  0  0  0
    8.9709    2.3540   -5.9576 C   0  0  0  0  0  0
    8.4840    2.3448   -4.5019 C   0  0  0  0  0  0
   -3.4293   -2.6113    0.1977 C   0  0  0  0  0  0
   -2.7712   -3.7161   -0.2566 N   0  0  0  0  0  0
   -3.4939   -4.8259   -0.5787 C   0  0  0  0  0  0
   -4.8847   -4.8249   -0.4442 C   0  0  0  0  0  0
   -5.5586   -3.7373    0.0095 N   0  0  0  0  0  0
   -4.8269   -2.6386    0.3289 C   0  0  0  0  0  0
   -2.8552   -5.9819   -1.0552 N   0  0  0  0  0  0
   -1.4021   -6.0829   -1.0816 C   0  0  0  0  0  0
   -0.6776   -2.2570   -0.1468 H   0  0  0  0  0  0
   -2.7995    1.6057    1.8473 H   0  0  0  0  0  0
   -4.1206   -0.1537    1.3500 H   0  0  0  0  0  0
    1.3526    0.6966    0.7779 H   0  0  0  0  0  0
    3.9141   -1.8373   -1.7932 H   0  0  0  0  0  0
    6.2037   -1.1012   -1.8335 H   0  0  0  0  0  0
    5.3537    1.7351    1.2961 H   0  0  0  0  0  0
    3.0735    0.9779    1.3659 H   0  0  0  0  0  0
    7.3742    2.5580    0.9216 H   0  0  0  0  0  0
    7.8243    1.0827    1.6664 H   0  0  0  0  0  0
    9.6567    2.9519    0.6366 H   0  0  0  0  0  0
   10.0542    1.2668    0.9807 H   0  0  0  0  0  0
    9.8656    2.5242   -1.5823 H   0  0  0  0  0  0
   10.2052    0.8160   -1.2827 H   0  0  0  0  0  0
    7.6192    2.2258   -1.8698 H   0  0  0  0  0  0
    8.4050   -0.5868   -2.6254 H   0  0  0  0  0  0
    7.0327    0.3645   -3.2566 H   0  0  0  0  0  0
    9.6606   -0.7883   -4.8870 H   0  0  0  0  0  0
    8.0248   -0.2780   -5.3680 H   0  0  0  0  0  0
   10.6865    1.0407   -6.1362 H   0  0  0  0  0  0
    9.3720    0.6247   -7.2284 H   0  0  0  0  0  0
    9.6857    3.1590   -6.1332 H   0  0  0  0  0  0
    8.1265    2.5238   -6.6275 H   0  0  0  0  0  0
    8.9091    3.1261   -3.8709 H   0  0  0  0  0  0
    7.3940    2.3694   -4.4508 H   0  0  0  0  0  0
   -5.4790   -5.6915   -0.6960 H   0  0  0  0  0  0
   -5.3910   -1.7898    0.6831 H   0  0  0  0  0  0
   -3.3967   -6.8261   -1.1739 H   0  0  0  0  0  0
   -1.1025   -7.0109   -1.5683 H   0  0  0  0  0  0
   -0.9988   -6.0820   -0.0686 H   0  0  0  0  0  0
   -0.9601   -5.2530   -1.6340 H   0  0  0  0  0  0
    9.8661    1.0889   -3.5416 H   0  0  0  0  0  0
  1  6  2  0  0  0
  1  2  1  0  0  0
  1 28  1  0  0  0
  2  3  2  0  0  0
  2 36  1  0  0  0
  3  4  1  0  0  0
  3  8  1  0  0  0
  4  5  1  0  0  0
  4  7  2  0  0  0
  5  6  1  0  0  0
  5 37  1  0  0  0
  6 38  1  0  0  0
  8  9  1  0  0  0
  8 39  1  0  0  0
  9 10  1  0  0  0
  9 11  2  0  0  0
 10 12  2  0  0  0
 10 16  1  0  0  0
 12 13  1  0  0  0
 12 40  1  0  0  0
 13 14  2  0  0  0
 13 41  1  0  0  0
 14 17  1  0  0  0
 14 15  1  0  0  0
 15 16  2  0  0  0
 15 42  1  0  0  0
 16 43  1  0  0  0
 17 18  1  0  0  0
 17 21  1  0  0  0
 18 19  1  0  0  0
 18 44  1  0  0  0
 18 45  1  0  0  0
 19 20  1  0  0  0
 19 46  1  0  0  0
 19 47  1  0  0  0
 20 21  1  0  0  0
 20 48  1  0  0  0
 20 49  1  0  0  0
 21 22  1  0  0  0
 21 50  1  0  0  0
 22 23  1  0  0  0
 22 51  1  0  0  0
 22 52  1  0  0  0
 23 24  1  0  0  0
 23 27  1  0  0  0
 23 67  1  0  0  0
 24 25  1  0  0  0
 24 53  1  0  0  0
 24 54  1  0  0  0
 25 26  1  0  0  0
 25 55  1  0  0  0
 25 56  1  0  0  0
 26 27  1  0  0  0
 26 57  1  0  0  0
 26 58  1  0  0  0
 27 59  1  0  0  0
 27 60  1  0  0  0
 28 29  2  0  0  0
 28 33  1  0  0  0
 29 30  1  0  0  0
 30 31  2  0  0  0
 30 34  1  0  0  0
 31 32  1  0  0  0
 31 61  1  0  0  0
 32 33  2  0  0  0
 33 62  1  0  0  0
 34 35  1  0  0  0
 34 63  1  0  0  0
 35 64  1  0  0  0
 35 65  1  0  0  0
 35 66  1  0  0  0
M  CHG  1  23   1
M  END
> <chembl_id>
CHEMBL1765781

> <chembl_pref_name>
None

> <i_m_ct_stereo_status>
1

> <s_m_source_file>
sdf/actives_sanitized.sdf

> <i_m_source_file_index>
38

> <i_lp_mmshare_version>
49012

> <i_f3d_flags>
0

> <s_epik_input>
W2NIXTFuW2NIXWMoW05IXVtDSDNdKW5jMS1jMltjSF1jKGMoPU8pW25IXVtjSF0yKVtOSF1DKD1PKWMzW2NIXVtjSF1jKFtjSF1bY0hdMylONFtDSDJdW0NIMl1bQ0gyXVtDQEhdNFtDSDJdTjVbQ0gyXVtDSDJdW0NIMl1bQ0gyXTU=

> <s_epik_cmdline>
J2VwaWtfcHl0aG9uJywgJy1waHQnLCAnMC41JywgJy1waCcsICc3LjUnLCAnLW50JywgJy1tYScsICcyMDAnLCAnLWltYWUnLCAnPGluZmlsZS5tYWU+JywgJy1vbWFlJywgJzxvdXRmaWxlLm1hZT4n

> <r_lp_tautomer_probability>
1

> <r_epik_Ionization_Penalty>
  0.0046

> <r_epik_Ionization_Penalty_Charging>
  0.0046

> <r_epik_Ionization_Penalty_Neutral>
  0.0000

> <r_epik_State_Penalty>
 -0.0000

> <r_epik_Charging_Adjusted_Penalty>
0.00458179966283637

> <i_epik_Tot_Q>
1

> <i_epik_Tot_abs_Q>
1

> <s_lp_Force_Field>
OPLS3e

> <r_lp_Energy>
69.997635

> <b_lp_Chiralities_Consistent>
1

> <s_lp_Variant>
sdf/actives_sanitized.sdf:38-1

$$$$
sdf/actives_sanitized.sdf:39
                    3D
 Schrodinger Suite 2020-1.
 80 85  0  0  1  0            999 V2000
   -1.2997    3.2611    0.1332 C   0  0  0  0  0  0
   -2.6969    3.2485    0.0434 C   0  0  0  0  0  0
   -3.3822    2.0263   -0.0282 C   0  0  0  0  0  0
   -0.5888    2.0513    0.1517 C   0  0  0  0  0  0
   -1.2591    0.8043    0.0845 C   0  0  0  0  0  0
   -2.6826    0.7990   -0.0070 C   0  0  0  0  0  0
   -3.3986   -0.3568   -0.0728 N   0  0  0  0  0  0
   -2.7263   -1.5306   -0.0466 C   0  0  0  0  0  0
   -1.3419   -1.6211    0.0422 C   0  0  0  0  0  0
   -0.5746   -0.4478    0.1066 C   0  0  0  0  0  0
    0.8064   -0.4416    0.1988 O   0  0  0  0  0  0
    1.5280   -1.6120    0.1996 C   0  0  0  0  0  0
    1.9617   -2.1681    1.4044 C   0  0  0  0  0  0
    2.7042   -3.3490    1.4009 C   0  0  0  0  0  0
    3.0376   -3.9948    0.1992 C   0  0  0  0  0  0
    2.5802   -3.4284   -1.0010 C   0  0  0  0  0  0
    1.8418   -2.2453   -1.0038 C   0  0  0  0  0  0
    1.6597   -1.5687    2.5794 F   0  0  0  0  0  0
    3.8169   -5.2682    0.1872 C   0  0  0  0  0  0
    4.9953   -5.4539    1.0494 C   0  0  0  0  0  0
    5.6061   -6.6897    0.9205 N   0  0  0  0  0  0
    5.1781   -7.6654    0.0213 C   0  0  0  0  0  0
    4.1650   -7.4582   -0.7541 N   0  0  0  0  0  0
    3.5034   -6.2699   -0.6764 C   0  0  0  0  0  0
    5.4053   -4.5628    1.8001 O   0  0  0  0  0  0
    5.9261   -9.0108   -0.0560 C   0  0  0  0  0  0
    5.3860  -10.0484   -1.0412 C   0  0  0  0  0  0
    5.8270  -10.0491   -2.3682 C   0  0  0  0  0  0
    5.3352  -10.9954   -3.2637 C   0  0  0  0  0  0
    4.4060  -11.9393   -2.8313 C   0  0  0  0  0  0
    3.9630  -11.9442   -1.5101 C   0  0  0  0  0  0
    4.4530  -10.9979   -0.6138 C   0  0  0  0  0  0
   -0.6907    4.5029    0.2010 O   0  0  0  0  0  0
    0.7274    4.5883    0.2953 C   0  0  0  0  0  0
   -3.3309    4.4792    0.0321 O   0  0  0  0  0  0
   -4.7509    4.5460   -0.0642 C   0  0  0  0  0  0
    6.7784   -6.8835    1.7991 C   0  0  0  0  0  0
   -5.1742    6.0216   -0.0412 C   0  0  0  0  0  0
   -6.7041    6.2044   -0.1232 C   0  0  0  0  0  0
   -7.1069    7.5884   -0.3918 N   0  0  0  0  0  0
   -8.5380    7.6519   -0.7165 C   0  0  0  0  0  0
   -9.0066    9.1046   -0.9472 C   0  0  0  0  0  0
   -8.6753    9.9076    0.1799 O   0  0  0  0  0  0
   -7.2741    9.9400    0.4259 C   0  0  0  0  0  0
   -6.7464    8.5140    0.6934 C   0  0  0  0  0  0
    3.9300  -12.8588   -3.7010 F   0  0  0  0  0  0
   -4.4594    1.9922   -0.0983 H   0  0  0  0  0  0
    0.4884    2.0437    0.2204 H   0  0  0  0  0  0
   -3.3296   -2.4251   -0.0981 H   0  0  0  0  0  0
   -0.8807   -2.5973    0.0615 H   0  0  0  0  0  0
    3.0126   -3.7660    2.3484 H   0  0  0  0  0  0
    2.8106   -3.8943   -1.9479 H   0  0  0  0  0  0
    1.5113   -1.8200   -1.9401 H   0  0  0  0  0  0
    2.6597   -6.1675   -1.3439 H   0  0  0  0  0  0
    6.9720   -8.8247   -0.3051 H   0  0  0  0  0  0
    5.9434   -9.4686    0.9343 H   0  0  0  0  0  0
    6.5455   -9.3166   -2.7062 H   0  0  0  0  0  0
    5.6727  -10.9972   -4.2897 H   0  0  0  0  0  0
    3.2421  -12.6786   -1.1820 H   0  0  0  0  0  0
    4.1061  -11.0024    0.4094 H   0  0  0  0  0  0
    1.0222    5.6368    0.3362 H   0  0  0  0  0  0
    1.2136    4.1432   -0.5740 H   0  0  0  0  0  0
    1.0984    4.1061    1.2010 H   0  0  0  0  0  0
   -5.0840    4.0799   -0.9934 H   0  0  0  0  0  0
   -5.2126    4.0157    0.7711 H   0  0  0  0  0  0
    7.2528   -7.8585    1.7057 H   0  0  0  0  0  0
    6.4931   -6.7721    2.8468 H   0  0  0  0  0  0
    7.5454   -6.1382    1.5815 H   0  0  0  0  0  0
   -4.8261    6.4244    0.9110 H   0  0  0  0  0  0
   -4.6682    6.5913   -0.8224 H   0  0  0  0  0  0
   -7.0942    5.5408   -0.8973 H   0  0  0  0  0  0
   -7.1633    5.8645    0.8072 H   0  0  0  0  0  0
   -8.7361    7.0503   -1.6050 H   0  0  0  0  0  0
   -9.1193    7.1995    0.0894 H   0  0  0  0  0  0
   -8.5655    9.5195   -1.8558 H   0  0  0  0  0  0
  -10.0873    9.1292   -1.0877 H   0  0  0  0  0  0
   -6.7495   10.4002   -0.4137 H   0  0  0  0  0  0
   -7.0866   10.5739    1.2926 H   0  0  0  0  0  0
   -7.1507    8.1443    1.6373 H   0  0  0  0  0  0
   -5.6639    8.5408    0.8184 H   0  0  0  0  0  0
  1  2  2  0  0  0
  1 33  1  0  0  0
  1  4  1  0  0  0
  2  3  1  0  0  0
  2 35  1  0  0  0
  3  6  2  0  0  0
  3 47  1  0  0  0
  4  5  2  0  0  0
  4 48  1  0  0  0
  5  6  1  0  0  0
  5 10  1  0  0  0
  6  7  1  0  0  0
  7  8  2  0  0  0
  8  9  1  0  0  0
  8 49  1  0  0  0
  9 10  2  0  0  0
  9 50  1  0  0  0
 10 11  1  0  0  0
 11 12  1  0  0  0
 12 13  2  0  0  0
 12 17  1  0  0  0
 13 14  1  0  0  0
 13 18  1  0  0  0
 14 15  2  0  0  0
 14 51  1  0  0  0
 15 16  1  0  0  0
 15 19  1  0  0  0
 16 17  2  0  0  0
 16 52  1  0  0  0
 17 53  1  0  0  0
 19 24  2  0  0  0
 19 20  1  0  0  0
 20 25  2  0  0  0
 20 21  1  0  0  0
 21 22  1  0  0  0
 21 37  1  0  0  0
 22 23  2  0  0  0
 22 26  1  0  0  0
 23 24  1  0  0  0
 24 54  1  0  0  0
 26 27  1  0  0  0
 26 55  1  0  0  0
 26 56  1  0  0  0
 27 28  2  0  0  0
 27 32  1  0  0  0
 28 29  1  0  0  0
 28 57  1  0  0  0
 29 30  2  0  0  0
 29 58  1  0  0  0
 30 31  1  0  0  0
 30 46  1  0  0  0
 31 32  2  0  0  0
 31 59  1  0  0  0
 32 60  1  0  0  0
 33 34  1  0  0  0
 34 61  1  0  0  0
 34 62  1  0  0  0
 34 63  1  0  0  0
 35 36  1  0  0  0
 36 38  1  0  0  0
 36 64  1  0  0  0
 36 65  1  0  0  0
 37 66  1  0  0  0
 37 67  1  0  0  0
 37 68  1  0  0  0
 38 39  1  0  0  0
 38 69  1  0  0  0
 38 70  1  0  0  0
 39 40  1  0  0  0
 39 71  1  0  0  0
 39 72  1  0  0  0
 40 41  1  0  0  0
 40 45  1  0  0  0
 41 42  1  0  0  0
 41 73  1  0  0  0
 41 74  1  0  0  0
 42 43  1  0  0  0
 42 75  1  0  0  0
 42 76  1  0  0  0
 43 44  1  0  0  0
 44 45  1  0  0  0
 44 77  1  0  0  0
 44 78  1  0  0  0
 45 79  1  0  0  0
 45 80  1  0  0  0
M  END
> <chembl_id>
CHEMBL444560

> <chembl_pref_name>
None

> <s_m_source_file>
sdf/actives_sanitized.sdf

> <i_m_source_file_index>
39

> <i_lp_mmshare_version>
49012

> <i_m_ct_stereo_status>
1

> <i_f3d_flags>
0

> <s_epik_input>
W0NIMl0xW0NIMl1PW0NIMl1bQ0gyXU4xW0NIMl1bQ0gyXVtDSDJdT2MoYyhbY0hdMilPW0NIM10pW2NIXWMoYzIzKW5bY0hdW2NIXWMzT2M0YyhGKVtjSF1jKFtjSF1bY0hdNCktYzVjKD1PKW4oW0NIM10pYyhuW2NIXTUpW0NIMl1jNltjSF1bY0hdYyhGKVtjSF1bY0hdNg==

> <s_epik_cmdline>
J2VwaWtfcHl0aG9uJywgJy1waHQnLCAnMC41JywgJy1waCcsICc3LjUnLCAnLW50JywgJy1tYScsICcyMDAnLCAnLWltYWUnLCAnPGluZmlsZS5tYWU+JywgJy1vbWFlJywgJzxvdXRmaWxlLm1hZT4n

> <r_lp_tautomer_probability>
1

> <r_epik_Ionization_Penalty>
  0.2162

> <r_epik_Ionization_Penalty_Charging>
  0.0000

> <r_epik_Ionization_Penalty_Neutral>
  0.2162

> <r_epik_State_Penalty>
  0.2008

> <r_epik_Charging_Adjusted_Penalty>
0.200779966798073

> <i_epik_Tot_Q>
0

> <i_epik_Tot_abs_Q>
0

> <s_lp_Force_Field>
OPLS3e

> <r_lp_Energy>
81.60464

> <b_lp_Chiralities_Consistent>
1

> <s_lp_Variant>
sdf/actives_sanitized.sdf:39-1

$$$$
sdf/actives_sanitized.sdf:40
                    3D
 Schrodinger Suite 2020-1.
 54 59  0  0  1  0            999 V2000
    0.1104    0.0383   -0.1832 C   0  0  0  0  0  0
   -0.5863    1.1834   -0.1704 C   0  0  0  0  0  0
   -0.1107    2.5458    0.0748 C   0  0  0  0  0  0
   -0.8213   -1.0108   -0.4822 C   0  0  0  0  0  0
    1.5702   -0.1486    0.0002 C   0  0  0  0  0  0
   -1.9567    0.8286   -0.4158 C   0  0  0  0  0  0
   -1.9999   -0.4637   -0.5913 N   0  5  0  0  0  0
    3.6649    0.4854   -0.7799 C   0  0  0  0  0  0
    2.3128    0.5759   -0.8724 N   0  0  0  0  0  0
    4.3252   -0.3242    0.0951 N   0  0  0  0  0  0
    0.8074    2.9048    1.0453 C   0  0  0  0  0  0
    4.4246    1.2187   -1.6985 N   0  0  0  0  0  0
    2.1565   -0.9993    0.9826 C   0  0  0  0  0  0
   -0.4634    3.7635   -0.6157 C   0  0  0  0  0  0
    1.0316    4.2556    0.9997 N   0  0  0  0  0  0
    3.5842   -1.0542    0.9760 C   0  0  0  0  0  0
    0.2749    4.8244   -0.0017 C   0  0  0  0  0  0
    6.0378    3.0070   -3.4029 N   0  0  0  0  0  0
   -0.5507   -2.2046   -0.6119 O   0  0  0  0  0  0
   -2.9150    1.6004   -0.4470 O   0  0  0  0  0  0
    3.8559    2.3715   -2.4328 C   0  0  0  0  0  0
    5.8931    1.3493   -1.5760 C   0  0  0  0  0  0
    6.6060    1.7660   -2.8823 C   0  0  0  0  0  0
    4.6321    2.7585   -3.7116 C   0  0  0  0  0  0
    1.4430   -1.7612    1.9465 C   0  0  0  0  0  0
   -1.3107    4.0799   -1.6927 C   0  0  0  0  0  0
    6.7510    3.4194   -4.6073 C   0  0  0  0  0  0
    4.2527   -1.8808    1.9111 C   0  0  0  0  0  0
    0.1728    6.1541   -0.4253 C   0  0  0  0  0  0
    2.1319   -2.5623    2.8540 C   0  0  0  0  0  0
   -1.4134    5.4044   -2.1136 C   0  0  0  0  0  0
    3.5219   -2.6243    2.8345 C   0  0  0  0  0  0
   -0.6879    6.4158   -1.4910 C   0  0  0  0  0  0
    1.3277    2.3028    1.7761 H   0  0  0  0  0  0
    1.6706    4.7213    1.6277 H   0  0  0  0  0  0
    2.8204    2.1808   -2.7157 H   0  0  0  0  0  0
    3.8532    3.2330   -1.7630 H   0  0  0  0  0  0
    6.1062    2.1038   -0.8170 H   0  0  0  0  0  0
    6.3350    0.4123   -1.2361 H   0  0  0  0  0  0
    6.5373    0.9645   -3.6212 H   0  0  0  0  0  0
    7.6676    1.9124   -2.6768 H   0  0  0  0  0  0
    4.5296    1.9752   -4.4657 H   0  0  0  0  0  0
    4.1897    3.6605   -4.1369 H   0  0  0  0  0  0
    0.3646   -1.7208    1.9811 H   0  0  0  0  0  0
   -1.8783    3.3108   -2.1949 H   0  0  0  0  0  0
    6.3314    4.3449   -5.0037 H   0  0  0  0  0  0
    6.6998    2.6599   -5.3896 H   0  0  0  0  0  0
    7.8021    3.6068   -4.3842 H   0  0  0  0  0  0
    5.3325   -1.9293    1.9076 H   0  0  0  0  0  0
    0.7335    6.9489    0.0440 H   0  0  0  0  0  0
    1.5812   -3.1411    3.5808 H   0  0  0  0  0  0
   -2.0663    5.6502   -2.9384 H   0  0  0  0  0  0
    4.0388   -3.2519    3.5456 H   0  0  0  0  0  0
   -0.7925    7.4308   -1.8454 H   0  0  0  0  0  0
  1  2  2  0  0  0
  1  4  1  0  0  0
  1  5  1  0  0  0
  2  3  1  0  0  0
  2  6  1  0  0  0
  3 11  2  0  0  0
  3 14  1  0  0  0
  4  7  1  0  0  0
  4 19  2  0  0  0
  5  9  1  0  0  0
  5 13  2  0  0  0
  6 20  2  0  0  0
  6  7  1  0  0  0
  8  9  2  0  0  0
  8 12  1  0  0  0
  8 10  1  0  0  0
 10 16  2  0  0  0
 11 15  1  0  0  0
 11 34  1  0  0  0
 12 21  1  0  0  0
 12 22  1  0  0  0
 13 16  1  0  0  0
 13 25  1  0  0  0
 14 17  2  0  0  0
 14 26  1  0  0  0
 15 17  1  0  0  0
 15 35  1  0  0  0
 16 28  1  0  0  0
 17 29  1  0  0  0
 18 23  1  0  0  0
 18 27  1  0  0  0
 18 24  1  0  0  0
 21 24  1  0  0  0
 21 36  1  0  0  0
 21 37  1  0  0  0
 22 23  1  0  0  0
 22 38  1  0  0  0
 22 39  1  0  0  0
 23 40  1  0  0  0
 23 41  1  0  0  0
 24 42  1  0  0  0
 24 43  1  0  0  0
 25 30  2  0  0  0
 25 44  1  0  0  0
 26 31  2  0  0  0
 26 45  1  0  0  0
 27 46  1  0  0  0
 27 47  1  0  0  0
 27 48  1  0  0  0
 28 32  2  0  0  0
 28 49  1  0  0  0
 29 33  2  0  0  0
 29 50  1  0  0  0
 30 32  1  0  0  0
 30 51  1  0  0  0
 31 33  1  0  0  0
 31 52  1  0  0  0
 32 53  1  0  0  0
 33 54  1  0  0  0
M  CHG  1   7  -1
M  END
> <chembl_id>
CHEMBL565612

> <chembl_pref_name>
SOTRASTAURIN

> <s_m_source_file>
sdf/actives_sanitized.sdf

> <i_m_source_file_index>
40

> <i_lp_mmshare_version>
49012

> <i_m_ct_stereo_status>
1

> <i_f3d_flags>
0

> <s_epik_input>
W2NIXTFbY0hdW2NIXVtjSF1jKGMxMilbbkhdW2NIXWMyQyhDKD1PKVtOSF1DMz1PKT1DM2M0bmMobmMoYzQ1KVtjSF1bY0hdW2NIXVtjSF01KU42W0NIMl1bQ0gyXU4oW0NIM10pW0NIMl1bQ0gyXTY=

> <s_epik_cmdline>
J2VwaWtfcHl0aG9uJywgJy1waHQnLCAnMC41JywgJy1waCcsICc3LjUnLCAnLW50JywgJy1tYScsICcyMDAnLCAnLWltYWUnLCAnPGluZmlsZS5tYWU+JywgJy1vbWFlJywgJzxvdXRmaWxlLm1hZT4n

> <r_epik_Ionization_Penalty>
  0.6184

> <r_epik_Ionization_Penalty_Charging>
  0.2462

> <r_epik_Ionization_Penalty_Neutral>
  0.3722

> <r_epik_State_Penalty>
  0.6003

> <r_epik_Charging_Adjusted_Penalty>
0.846489684008531

> <i_epik_Tot_Q>
-1

> <i_epik_Tot_abs_Q>
1

> <s_lp_Force_Field>
OPLS3e

> <r_lp_Energy>
62.135631

> <b_lp_Chiralities_Consistent>
1

> <s_lp_Variant>
sdf/actives_sanitized.sdf:40-1

$$$$
sdf/actives_sanitized.sdf:41
                    3D
 Schrodinger Suite 2020-1.
 26 28  0  0  1  0            999 V2000
   -2.7733    0.2333   -0.0942 O   0  0  0  0  0  0
   -2.4541    2.4955   -0.0029 N   0  0  0  0  0  0
    2.2028   -0.9505   -0.8415 N   0  0  0  0  0  0
   -0.5819    1.2704   -0.0508 C   0  0  0  0  0  0
   -0.2258    2.6933   -0.0236 C   0  0  0  0  0  0
   -1.4134    3.3930    0.0180 C   0  0  0  0  0  0
   -2.0362    1.2189   -0.0568 C   0  0  0  0  0  0
    0.1441    0.1290   -0.0777 C   0  0  0  0  0  0
    0.9845    3.3948   -0.0466 C   0  0  0  0  0  0
    1.5833   -0.0351   -0.0251 C   0  0  0  0  0  0
   -1.4463    4.7865    0.0602 C   0  0  0  0  0  0
    0.9741    4.7923   -0.0060 C   0  0  0  0  0  0
   -0.2380    5.4866    0.0513 C   0  0  0  0  0  0
    2.5845    0.5293    0.7603 C   0  0  0  0  0  0
    3.5543   -0.9532   -0.6112 C   0  0  0  0  0  0
    3.8115   -0.0309    0.3883 C   0  0  0  0  0  0
   -3.4282    2.7594    0.0060 H   0  0  0  0  0  0
    1.7306   -1.5314   -1.5196 H   0  0  0  0  0  0
   -0.3710   -0.8210   -0.1392 H   0  0  0  0  0  0
    1.9339    2.8890   -0.1097 H   0  0  0  0  0  0
   -2.3809    5.3268    0.0941 H   0  0  0  0  0  0
    1.9063    5.3374   -0.0233 H   0  0  0  0  0  0
   -0.2405    6.5661    0.0812 H   0  0  0  0  0  0
    2.4394    1.2727    1.5306 H   0  0  0  0  0  0
    4.2048   -1.6089   -1.1711 H   0  0  0  0  0  0
    4.7775    0.2057    0.8098 H   0  0  0  0  0  0
  1  7  2  0  0  0
  2  6  1  0  0  0
  2  7  1  0  0  0
  2 17  1  0  0  0
  3 10  1  0  0  0
  3 15  1  0  0  0
  3 18  1  0  0  0
  4  5  1  0  0  0
  4  7  1  0  0  0
  4  8  2  3  0  0
  5  6  2  0  0  0
  5  9  1  0  0  0
  6 11  1  0  0  0
  8 10  1  0  0  0
  8 19  1  0  0  0
  9 12  2  0  0  0
  9 20  1  0  0  0
 10 14  2  0  0  0
 11 13  2  0  0  0
 11 21  1  0  0  0
 12 13  1  0  0  0
 12 22  1  0  0  0
 13 23  1  0  0  0
 14 16  1  0  0  0
 14 24  1  0  0  0
 15 16  2  0  0  0
 15 25  1  0  0  0
 16 26  1  0  0  0
M  END
> <chembl_id>
CHEMBL1996176

> <chembl_pref_name>
None

> <s_m_source_file>
sdf/actives_sanitized.sdf

> <i_m_source_file_index>
41

> <i_lp_mmshare_version>
49012

> <i_m_ct_stereo_status>
1

> <i_f3d_flags>
0

> <s_epik_input>
W2NIXTFbY0hdW2NIXVtjSF1jKGMxMilbTkhdQyg9TylDXDI9W0NIXVxjM1tuSF1bY0hdW2NIXVtjSF0z

> <s_epik_cmdline>
J2VwaWtfcHl0aG9uJywgJy1waHQnLCAnMC41JywgJy1waCcsICc3LjUnLCAnLW50JywgJy1tYScsICcyMDAnLCAnLWltYWUnLCAnPGluZmlsZS5tYWU+JywgJy1vbWFlJywgJzxvdXRmaWxlLm1hZT4n

> <r_lp_tautomer_probability>
1

> <r_epik_Ionization_Penalty>
  0.0000

> <r_epik_Ionization_Penalty_Charging>
  0.0000

> <r_epik_Ionization_Penalty_Neutral>
  0.0000

> <r_epik_State_Penalty>
 -0.0000

> <r_epik_Charging_Adjusted_Penalty>
0

> <i_epik_Tot_Q>
0

> <i_epik_Tot_abs_Q>
0

> <s_lp_Force_Field>
OPLS3e

> <r_lp_Energy>
17.200868

> <b_lp_Chiralities_Consistent>
1

> <s_lp_Variant>
sdf/actives_sanitized.sdf:41-1

$$$$
sdf/actives_sanitized.sdf:42
                    3D
 Schrodinger Suite 2020-1.
 64 69  0  0  1  0            999 V2000
   -3.4663    1.6868    1.2407 N   0  0  0  0  0  0
   -5.1172    2.0677   -0.2939 C   0  0  0  0  0  0
   -4.0172    2.5891    0.3640 C   0  0  0  0  0  0
   -5.2577    0.7313    0.2287 C   0  0  0  0  0  0
   -4.2293    0.5296    1.2061 C   0  0  0  0  0  0
   -4.1155   -0.6708    1.9248 C   0  0  0  0  0  0
   -5.0317   -1.6804    1.6365 C   0  0  0  0  0  0
   -6.0247   -1.5166    0.6779 C   0  0  0  0  0  0
   -6.1494   -0.3249   -0.0306 C   0  0  0  0  0  0
   -5.9238    2.7508   -1.3052 C   0  0  0  0  0  0
   -7.3609    2.7241   -1.3452 C   0  0  0  0  0  0
   -7.7021    3.4642   -2.4042 N   0  0  0  0  0  0
   -6.6513    3.9733   -3.0526 C   0  0  0  0  0  0
   -5.4992    3.5060   -2.3337 C   0  0  0  0  0  0
   -4.1255    3.8178   -2.7013 C   0  0  0  0  0  0
   -1.8993    3.5283   -3.0755 N   0  0  0  0  0  0
   -3.0894    2.9109   -2.7902 C   0  0  0  0  0  0
   -2.1294    4.8866   -3.2108 C   0  0  0  0  0  0
   -3.5311    5.0957   -3.0031 C   0  0  0  0  0  0
   -4.0312    6.4070   -3.0880 C   0  0  0  0  0  0
   -3.1586    7.4542   -3.3724 C   0  0  0  0  0  0
   -1.8005    7.2250   -3.5647 C   0  0  0  0  0  0
   -1.2525    5.9457   -3.4861 C   0  0  0  0  0  0
   -8.1440    2.1619   -0.5808 O   0  0  0  0  0  0
   -6.6986    4.6834   -4.0564 O   0  0  0  0  0  0
   -0.6093    2.8515   -3.1075 C   0  0  0  0  0  0
   -2.3359    1.9637    2.1297 C   0  0  0  0  0  0
   -1.0475    2.4208    1.3956 C   0  0  0  0  0  0
   -0.0529    2.6721   -1.6836 C   0  0  0  0  0  0
   -0.8420    1.7286   -0.9570 O   0  0  0  0  0  0
   -0.3873    1.4554    0.3693 C   0  0  2  0  0  0
   -0.5867   -0.0510    0.6641 C   0  0  0  0  0  0
    0.0091   -0.9463   -0.4496 N   0  3  0  0  0  0
    1.5475   -0.8776   -0.5382 C   0  0  0  0  0  0
   -0.4644   -2.4066   -0.3060 C   0  0  0  0  0  0
   -3.5718    3.5694    0.2710 H   0  0  0  0  0  0
   -3.3489   -0.8284    2.6686 H   0  0  0  0  0  0
   -4.9675   -2.6176    2.1702 H   0  0  0  0  0  0
   -6.7131   -2.3260    0.4822 H   0  0  0  0  0  0
   -6.9307   -0.2206   -0.7684 H   0  0  0  0  0  0
   -8.6581    3.6256   -2.6841 H   0  0  0  0  0  0
   -3.1004    1.8434   -2.6215 H   0  0  0  0  0  0
   -5.0799    6.6096   -2.9288 H   0  0  0  0  0  0
   -3.5412    8.4622   -3.4398 H   0  0  0  0  0  0
   -1.1524    8.0623   -3.7797 H   0  0  0  0  0  0
   -0.1946    5.7913   -3.6376 H   0  0  0  0  0  0
   -0.7282    1.8875   -3.6048 H   0  0  0  0  0  0
    0.0760    3.4347   -3.7232 H   0  0  0  0  0  0
   -2.6572    2.7284    2.8385 H   0  0  0  0  0  0
   -2.1235    1.0716    2.7186 H   0  0  0  0  0  0
   -1.2289    3.3863    0.9218 H   0  0  0  0  0  0
   -0.3071    2.6375    2.1671 H   0  0  0  0  0  0
    0.9719    2.3049   -1.7582 H   0  0  0  0  0  0
   -0.0122    3.6322   -1.1652 H   0  0  0  0  0  0
    0.6882    1.6344    0.4282 H   0  0  0  0  0  0
   -0.1303   -0.3751    1.6008 H   0  0  0  0  0  0
   -1.6428   -0.3117    0.6603 H   0  0  0  0  0  0
    1.9511   -1.1809    0.4289 H   0  0  0  0  0  0
    1.8244    0.1455   -0.7893 H   0  0  0  0  0  0
    1.8591   -1.5567   -1.3331 H   0  0  0  0  0  0
   -0.0922   -2.7864    0.6468 H   0  0  0  0  0  0
   -0.0578   -2.9662   -1.1496 H   0  0  0  0  0  0
   -1.5548   -2.4014   -0.3388 H   0  0  0  0  0  0
   -0.3601   -0.6059   -1.3271 H   0  0  0  0  0  0
  1  5  1  0  0  0
  1 27  1  0  0  0
  1  3  1  0  0  0
  2  3  2  0  0  0
  2 10  1  0  0  0
  2  4  1  0  0  0
  3 36  1  0  0  0
  4  9  2  0  0  0
  4  5  1  0  0  0
  5  6  2  0  0  0
  6  7  1  0  0  0
  6 37  1  0  0  0
  7  8  2  0  0  0
  7 38  1  0  0  0
  8  9  1  0  0  0
  8 39  1  0  0  0
  9 40  1  0  0  0
 10 11  1  0  0  0
 10 14  2  0  0  0
 11 12  1  0  0  0
 11 24  2  0  0  0
 12 13  1  0  0  0
 12 41  1  0  0  0
 13 25  2  0  0  0
 13 14  1  0  0  0
 14 15  1  0  0  0
 15 19  1  0  0  0
 15 17  2  0  0  0
 16 18  1  0  0  0
 16 26  1  0  0  0
 16 17  1  0  0  0
 17 42  1  0  0  0
 18 19  2  0  0  0
 18 23  1  0  0  0
 19 20  1  0  0  0
 20 21  2  0  0  0
 20 43  1  0  0  0
 21 22  1  0  0  0
 21 44  1  0  0  0
 22 23  2  0  0  0
 22 45  1  0  0  0
 23 46  1  0  0  0
 26 29  1  0  0  0
 26 47  1  0  0  0
 26 48  1  0  0  0
 27 28  1  0  0  0
 27 49  1  0  0  0
 27 50  1  0  0  0
 28 31  1  0  0  0
 28 51  1  0  0  0
 28 52  1  0  0  0
 29 30  1  0  0  0
 29 53  1  0  0  0
 29 54  1  0  0  0
 30 31  1  0  0  0
 31 32  1  0  0  0
 31 55  1  0  0  0
 32 33  1  0  0  0
 32 56  1  0  0  0
 32 57  1  0  0  0
 33 34  1  0  0  0
 33 35  1  0  0  0
 33 64  1  0  0  0
 34 58  1  0  0  0
 34 59  1  0  0  0
 34 60  1  0  0  0
 35 61  1  0  0  0
 35 62  1  0  0  0
 35 63  1  0  0  0
M  CHG  1  33   1
M  END
> <chembl_id>
CHEMBL360847

> <chembl_pref_name>
None

> <s_m_source_file>
sdf/actives_sanitized.sdf

> <i_m_source_file_index>
42

> <i_lp_mmshare_version>
49012

> <i_m_ct_stereo_status>
1

> <i_f3d_flags>
0

> <s_epik_input>
W2NIXTFbY0hdW2NIXVtjSF1jKGMxbjIzKWMoW2NIXTIpQzQ9QyhDKD1PKVtOSF1DND1PKWM1YzZjKFtjSF1bY0hdW2NIXVtjSF02KW4oW2NIXTUpW0NIMl1bQ0gyXU9bQ0BASF0oW0NIMl1bQ0gyXTMpW0NIMl1OKFtDSDNdKVtDSDNd

> <s_epik_cmdline>
J2VwaWtfcHl0aG9uJywgJy1waHQnLCAnMC41JywgJy1waCcsICc3LjUnLCAnLW50JywgJy1tYScsICcyMDAnLCAnLWltYWUnLCAnPGluZmlsZS5tYWU+JywgJy1vbWFlJywgJzxvdXRmaWxlLm1hZT4n

> <r_lp_tautomer_probability>
1

> <r_epik_Ionization_Penalty>
  0.1524

> <r_epik_Ionization_Penalty_Charging>
  0.0444

> <r_epik_Ionization_Penalty_Neutral>
  0.1080

> <r_epik_State_Penalty>
 -0.0000

> <r_epik_Charging_Adjusted_Penalty>
0.0444152683428649

> <i_epik_Tot_Q>
1

> <i_epik_Tot_abs_Q>
1

> <s_lp_Force_Field>
OPLS3e

> <r_lp_Energy>
58.617281

> <b_lp_Chiralities_Consistent>
1

> <s_lp_Variant>
sdf/actives_sanitized.sdf:42-1

$$$$
sdf/actives_sanitized.sdf:43
                    3D
 Schrodinger Suite 2020-1.
 56 60  0  0  1  0            999 V2000
   -0.7128    1.0095   -0.5132 O   0  0  0  0  0  0
    4.2432   -2.2720    0.8433 O   0  0  0  0  0  0
    5.6011   -0.1013    0.1202 O   0  0  0  0  0  0
   -4.2275   -1.2979   -0.2111 N   0  0  0  0  0  0
   -3.0642   -0.6335   -0.3266 N   0  0  0  0  0  0
   -0.7411   -1.2047    0.0504 N   0  0  0  0  0  0
   -1.1597   -7.9728    2.2618 N   0  0  0  0  0  0
   -3.2081   -7.3914    1.8177 N   0  0  0  0  0  0
   -2.4125   -8.4340    2.2580 N   0  0  0  0  0  0
   -2.6441   -2.7348    0.3939 C   0  0  0  0  0  0
   -4.0417   -2.5939    0.2252 C   0  0  0  0  0  0
   -2.1055   -1.4620    0.0254 C   0  0  0  0  0  0
   -3.0043   -5.0200    1.1067 C   0  0  0  0  0  0
   -2.1269   -3.9616    0.8386 C   0  0  0  0  0  0
   -2.4486   -6.3284    1.5858 C   0  0  0  0  0  0
   -4.9338   -3.6367    0.4843 C   0  0  0  0  0  0
   -4.3830   -4.8415    0.9247 C   0  0  0  0  0  0
   -0.1209   -0.0294   -0.2086 C   0  0  0  0  0  0
    1.3940   -0.0468   -0.1147 C   0  0  0  0  0  0
   -1.1253   -6.6608    1.8687 C   0  0  0  0  0  0
    3.5049   -1.1833    0.4113 C   0  0  0  0  0  0
    2.1008   -1.1746    0.3371 C   0  0  0  0  0  0
    4.2211   -0.0401    0.0307 C   0  0  0  0  0  0
    2.1295    1.0853   -0.4863 C   0  0  0  0  0  0
   -0.0622   -8.8094    2.7250 C   0  0  0  0  0  0
    3.5198    1.0909   -0.4157 C   0  0  0  0  0  0
    0.1922   -8.6834    4.2201 C   0  0  0  0  0  0
   -0.5040   -9.4983    5.1170 C   0  0  0  0  0  0
    1.1118   -7.7439    4.6941 C   0  0  0  0  0  0
    3.5747   -3.4657    1.2377 C   0  0  0  0  0  0
   -0.2762   -9.3777    6.4854 C   0  0  0  0  0  0
    1.3391   -7.6240    6.0626 C   0  0  0  0  0  0
    6.3793    1.0274   -0.2634 C   0  0  0  0  0  0
    0.6446   -8.4416    6.9518 C   0  0  0  0  0  0
   -5.0991   -0.8403   -0.4359 H   0  0  0  0  0  0
   -0.1557   -1.9837    0.3117 H   0  0  0  0  0  0
   -1.0617   -4.0793    0.9700 H   0  0  0  0  0  0
   -6.0002   -3.5259    0.3536 H   0  0  0  0  0  0
   -5.0606   -5.6577    1.1304 H   0  0  0  0  0  0
   -0.1986   -6.1074    1.8326 H   0  0  0  0  0  0
    1.5552   -2.0564    0.6349 H   0  0  0  0  0  0
    1.6317    1.9773   -0.8399 H   0  0  0  0  0  0
   -0.2733   -9.8492    2.4669 H   0  0  0  0  0  0
    0.8344   -8.5448    2.1618 H   0  0  0  0  0  0
    4.0371    1.9890   -0.7164 H   0  0  0  0  0  0
   -1.2215  -10.2210    4.7559 H   0  0  0  0  0  0
    1.6480   -7.1071    4.0055 H   0  0  0  0  0  0
    4.3139   -4.2109    1.5312 H   0  0  0  0  0  0
    2.9899   -3.8876    0.4188 H   0  0  0  0  0  0
    2.9213   -3.2938    2.0944 H   0  0  0  0  0  0
   -0.8114  -10.0063    7.1818 H   0  0  0  0  0  0
    2.0499   -6.9001    6.4332 H   0  0  0  0  0  0
    7.4364    0.7951   -0.1353 H   0  0  0  0  0  0
    6.1554    1.8972    0.3559 H   0  0  0  0  0  0
    6.2233    1.2830   -1.3125 H   0  0  0  0  0  0
    0.8199   -8.3475    8.0135 H   0  0  0  0  0  0
  1 18  2  0  0  0
  2 21  1  0  0  0
  2 30  1  0  0  0
  3 23  1  0  0  0
  3 33  1  0  0  0
  4  5  1  0  0  0
  4 11  1  0  0  0
  4 35  1  0  0  0
  5 12  2  0  0  0
  6 12  1  0  0  0
  6 18  1  0  0  0
  6 36  1  0  0  0
  7  9  1  0  0  0
  7 20  1  0  0  0
  7 25  1  0  0  0
  8  9  2  0  0  0
  8 15  1  0  0  0
 10 11  2  0  0  0
 10 12  1  0  0  0
 10 14  1  0  0  0
 11 16  1  0  0  0
 13 14  2  0  0  0
 13 15  1  0  0  0
 13 17  1  0  0  0
 14 37  1  0  0  0
 15 20  2  0  0  0
 16 17  2  0  0  0
 16 38  1  0  0  0
 17 39  1  0  0  0
 18 19  1  0  0  0
 19 22  1  0  0  0
 19 24  2  0  0  0
 20 40  1  0  0  0
 21 22  2  0  0  0
 21 23  1  0  0  0
 22 41  1  0  0  0
 23 26  2  0  0  0
 24 26  1  0  0  0
 24 42  1  0  0  0
 25 27  1  0  0  0
 25 43  1  0  0  0
 25 44  1  0  0  0
 26 45  1  0  0  0
 27 28  2  0  0  0
 27 29  1  0  0  0
 28 31  1  0  0  0
 28 46  1  0  0  0
 29 32  2  0  0  0
 29 47  1  0  0  0
 30 48  1  0  0  0
 30 49  1  0  0  0
 30 50  1  0  0  0
 31 34  2  0  0  0
 31 51  1  0  0  0
 32 34  1  0  0  0
 32 52  1  0  0  0
 33 53  1  0  0  0
 33 54  1  0  0  0
 33 55  1  0  0  0
 34 56  1  0  0  0
M  END
> <chembl_id>
CHEMBL1991078

> <chembl_pref_name>
None

> <s_m_source_file>
sdf/actives_sanitized.sdf

> <i_m_source_file_index>
43

> <i_lp_mmshare_version>
49012

> <i_m_ct_stereo_status>
1

> <i_f3d_flags>
0

> <s_epik_input>
W2NIXTFbY0hdYyhPW0NIM10pYyhPW0NIM10pW2NIXWMxQyg9TylbTkhdYzJuW25IXWMoYzIzKVtjSF1bY0hdYyhbY0hdMyktYyhbY0hdNClubm40W0NIMl1jNVtjSF1bY0hdW2NIXVtjSF1bY0hdNQ==

> <s_epik_cmdline>
J2VwaWtfcHl0aG9uJywgJy1waHQnLCAnMC41JywgJy1waCcsICc3LjUnLCAnLW50JywgJy1tYScsICcyMDAnLCAnLWltYWUnLCAnPGluZmlsZS5tYWU+JywgJy1vbWFlJywgJzxvdXRmaWxlLm1hZT4n

> <r_lp_tautomer_probability>
1

> <r_epik_Ionization_Penalty>
  0.0000

> <r_epik_Ionization_Penalty_Charging>
  0.0000

> <r_epik_Ionization_Penalty_Neutral>
  0.0000

> <r_epik_State_Penalty>
 -0.0000

> <r_epik_Charging_Adjusted_Penalty>
0

> <i_epik_Tot_Q>
0

> <i_epik_Tot_abs_Q>
0

> <s_lp_Force_Field>
OPLS3e

> <r_lp_Energy>
48.841435

> <b_lp_Chiralities_Consistent>
1

> <s_lp_Variant>
sdf/actives_sanitized.sdf:43-1

$$$$
sdf/actives_sanitized.sdf:44
                    3D
 Schrodinger Suite 2020-1.
 54 57  0  0  1  0            999 V2000
    4.6040   -1.5834    1.1188 N   0  0  0  0  0  0
    4.4618    0.3555   -0.2182 N   0  0  0  0  0  0
    2.3730    1.4577   -0.6678 N   0  0  0  0  0  0
    0.3309    0.5804    0.2622 N   0  0  0  0  0  0
   -0.3234    2.4747   -1.0359 N   0  0  0  0  0  0
    5.5753   -4.1397   -0.0191 N   0  3  0  0  0  0
   -1.4886    3.0883   -1.2626 N   0  0  0  0  0  0
    3.8149   -0.6006    0.5086 C   0  0  0  0  0  0
    1.7257    0.5220    0.0784 C   0  0  0  0  0  0
    3.7186    1.3424   -0.7861 C   0  0  0  0  0  0
    2.4228   -0.5249    0.6919 C   0  0  0  0  0  0
   -0.6017    1.4737   -0.2241 C   0  0  0  0  0  0
    4.0595   -2.8915    1.5339 C   0  0  0  0  0  0
    6.0215   -1.8000    0.7558 C   0  0  0  0  0  0
    4.3934    2.3737   -1.5997 C   0  0  0  0  0  0
   -1.9749    1.4563    0.0617 C   0  0  0  0  0  0
   -2.5499    2.5155   -0.6178 C   0  0  0  0  0  0
    4.1033   -3.9304    0.3907 C   0  0  0  0  0  0
    6.1809   -2.7814   -0.4272 C   0  0  0  0  0  0
    5.7179    2.4467   -1.8538 C   0  0  0  0  0  0
    6.4125    3.4637   -2.6739 C   0  0  0  0  0  0
   -3.9608    3.0401   -0.7235 C   0  0  0  0  0  0
    5.6816   -5.1544   -1.1740 C   0  0  0  0  0  0
    7.8108    3.4351   -2.7215 C   0  0  0  0  0  0
    5.7238    4.4474   -3.3983 C   0  0  0  0  0  0
    8.5118    4.3692   -3.4797 C   0  0  0  0  0  0
    6.4240    5.3819   -4.1573 C   0  0  0  0  0  0
    7.8149    5.3391   -4.1948 C   0  0  0  0  0  0
    0.0011   -0.1690    0.8523 H   0  0  0  0  0  0
   -1.5543    3.8994   -1.8607 H   0  0  0  0  0  0
    1.8824   -1.2413    1.2908 H   0  0  0  0  0  0
    4.6426   -3.2597    2.3803 H   0  0  0  0  0  0
    3.0478   -2.8076    1.9250 H   0  0  0  0  0  0
    6.5151   -0.8556    0.5242 H   0  0  0  0  0  0
    6.5565   -2.1841    1.6263 H   0  0  0  0  0  0
    3.7402    3.1260   -2.0169 H   0  0  0  0  0  0
   -2.4899    0.7499    0.6961 H   0  0  0  0  0  0
    3.5520   -3.6079   -0.4954 H   0  0  0  0  0  0
    3.7330   -4.9038    0.7151 H   0  0  0  0  0  0
    7.2309   -2.9687   -0.6561 H   0  0  0  0  0  0
    5.6668   -2.4419   -1.3291 H   0  0  0  0  0  0
    6.3573    1.6866   -1.4268 H   0  0  0  0  0  0
   -4.6647    2.4215   -0.1666 H   0  0  0  0  0  0
   -4.3049    3.0677   -1.7577 H   0  0  0  0  0  0
   -4.0422    4.0534   -0.3297 H   0  0  0  0  0  0
    5.1212   -4.7638   -2.0251 H   0  0  0  0  0  0
    5.2622   -6.0944   -0.8131 H   0  0  0  0  0  0
    6.7414   -5.2659   -1.4075 H   0  0  0  0  0  0
    8.3633    2.6872   -2.1706 H   0  0  0  0  0  0
    4.6459    4.5008   -3.3884 H   0  0  0  0  0  0
    9.5909    4.3415   -3.5131 H   0  0  0  0  0  0
    5.8896    6.1364   -4.7156 H   0  0  0  0  0  0
    8.3578    6.0636   -4.7839 H   0  0  0  0  0  0
    6.0834   -4.4870    0.7824 H   0  0  0  0  0  0
  1  8  1  0  0  0
  1 13  1  0  0  0
  1 14  1  0  0  0
  2  8  2  0  0  0
  2 10  1  0  0  0
  3  9  1  0  0  0
  3 10  2  0  0  0
  4  9  1  0  0  0
  4 12  1  0  0  0
  4 29  1  0  0  0
  5  7  1  0  0  0
  5 12  2  0  0  0
  6 18  1  0  0  0
  6 19  1  0  0  0
  6 23  1  0  0  0
  6 54  1  0  0  0
  7 17  1  0  0  0
  7 30  1  0  0  0
  8 11  1  0  0  0
  9 11  2  0  0  0
 10 15  1  0  0  0
 11 31  1  0  0  0
 12 16  1  0  0  0
 13 18  1  0  0  0
 13 32  1  0  0  0
 13 33  1  0  0  0
 14 19  1  0  0  0
 14 34  1  0  0  0
 14 35  1  0  0  0
 15 20  2  3  0  0
 15 36  1  0  0  0
 16 17  2  0  0  0
 16 37  1  0  0  0
 17 22  1  0  0  0
 18 38  1  0  0  0
 18 39  1  0  0  0
 19 40  1  0  0  0
 19 41  1  0  0  0
 20 21  1  0  0  0
 20 42  1  0  0  0
 21 24  2  0  0  0
 21 25  1  0  0  0
 22 43  1  0  0  0
 22 44  1  0  0  0
 22 45  1  0  0  0
 23 46  1  0  0  0
 23 47  1  0  0  0
 23 48  1  0  0  0
 24 26  1  0  0  0
 24 49  1  0  0  0
 25 27  2  0  0  0
 25 50  1  0  0  0
 26 28  2  0  0  0
 26 51  1  0  0  0
 27 28  1  0  0  0
 27 52  1  0  0  0
 28 53  1  0  0  0
M  CHG  1   6   1
M  END
> <chembl_id>
CHEMBL1983923

> <chembl_pref_name>
None

> <s_m_source_file>
sdf/actives_sanitized.sdf

> <i_m_source_file_index>
44

> <i_lp_mmshare_version>
49012

> <i_m_ct_stereo_status>
1

> <i_f3d_flags>
0

> <s_epik_input>
W0NIMl0xW0NIMl1OKFtDSDNdKVtDSDJdW0NIMl1OMWMybmMobmMoW2NIXTIpW05IXWMzbltuSF1jKFtjSF0zKVtDSDNdKS9bQ0hdPVtDSF0vYzRbY0hdW2NIXVtjSF1bY0hdW2NIXTQ=

> <s_epik_cmdline>
J2VwaWtfcHl0aG9uJywgJy1waHQnLCAnMC41JywgJy1waCcsICc3LjUnLCAnLW50JywgJy1tYScsICcyMDAnLCAnLWltYWUnLCAnPGluZmlsZS5tYWU+JywgJy1vbWFlJywgJzxvdXRmaWxlLm1hZT4n

> <r_lp_tautomer_probability>
0.842599999161192

> <r_epik_Ionization_Penalty>
  0.4598

> <r_epik_Ionization_Penalty_Charging>
  0.4592

> <r_epik_Ionization_Penalty_Neutral>
  0.0005

> <r_epik_State_Penalty>
  0.0970

> <r_epik_Charging_Adjusted_Penalty>
0.556214620090721

> <i_epik_Tot_Q>
1

> <i_epik_Tot_abs_Q>
1

> <s_lp_Force_Field>
OPLS3e

> <r_lp_Energy>
43.638583

> <b_lp_Chiralities_Consistent>
1

> <s_lp_Variant>
sdf/actives_sanitized.sdf:44-1

$$$$
sdf/actives_sanitized.sdf:45
                    3D
 Schrodinger Suite 2020-1.
 62 66  0  0  1  0            999 V2000
    5.2118   -2.8471    4.4599 C   0  0  0  0  0  0
    4.9821   -3.5218    3.2365 C   0  0  0  0  0  0
    5.5329   -4.7931    3.0349 C   0  0  0  0  0  0
    6.3182   -5.3960    4.0140 C   0  0  0  0  0  0
    6.5577   -4.7330    5.2131 C   0  0  0  0  0  0
    6.0075   -3.4725    5.4329 C   0  0  0  0  0  0
   -2.5492   -0.1898   -0.2269 C   0  0  0  0  0  0
   -1.7845   -1.3167   -0.2752 N   0  0  0  0  0  0
   -0.4352   -1.1990   -0.1998 C   0  0  0  0  0  0
    0.2293    0.0263   -0.0647 C   0  0  0  0  0  0
   -0.5700    1.1758   -0.0053 C   0  0  0  0  0  0
   -1.9599    1.0743   -0.0844 C   0  0  0  0  0  0
    1.7155    0.1012    0.0155 C   0  0  0  0  0  0
    2.4283    1.1503   -0.5776 C   0  0  0  0  0  0
    3.7780    1.2615   -0.5324 N   0  0  0  0  0  0
    2.4626   -0.8727    0.6943 C   0  0  0  0  0  0
    3.8642   -0.8037    0.7515 C   0  0  0  0  0  0
    4.4755    0.2926    0.1086 C   0  0  0  0  0  0
    5.8698    0.4488    0.1260 N   0  0  0  0  0  0
    6.5995   -0.8150    0.0795 C   0  0  0  0  0  0
    6.0647   -1.8337    1.1189 C   0  0  0  0  0  0
    4.6415   -1.6997    1.4927 N   0  0  0  0  0  0
   -3.9364   -0.3357   -0.2935 N   0  0  0  0  0  0
   -4.7220    0.5207   -1.2031 C   0  0  0  0  0  0
   -4.8274   -0.0619   -2.6307 C   0  0  0  0  0  0
   -5.5217   -1.4357   -2.5477 N   0  3  0  0  0  0
   -4.7093   -2.3470   -1.6075 C   0  0  0  0  0  0
   -4.6010   -1.6540   -0.2305 C   0  0  0  0  0  0
   -5.6477   -2.0702   -3.9461 C   0  0  0  0  0  0
    4.1319   -2.9400    2.0996 C   0  0  0  0  0  0
    4.6049   -1.4690    4.7745 C   0  0  0  0  0  0
    5.2559   -0.5242    4.0972 F   0  0  0  0  0  0
    3.3127   -1.4191    4.4521 F   0  0  0  0  0  0
    4.6927   -1.1657    6.0714 F   0  0  0  0  0  0
    6.9935   -6.9607    3.7404 Cl  0  0  0  0  0  0
    5.3568   -5.3174    2.1065 H   0  0  0  0  0  0
    7.1663   -5.1943    5.9772 H   0  0  0  0  0  0
    6.2095   -2.9867    6.3762 H   0  0  0  0  0  0
    0.1158   -2.1266   -0.2564 H   0  0  0  0  0  0
   -0.1205    2.1511    0.1124 H   0  0  0  0  0  0
   -2.5592    1.9705   -0.0190 H   0  0  0  0  0  0
    1.9178    1.9347   -1.1171 H   0  0  0  0  0  0
    1.9366   -1.6777    1.1838 H   0  0  0  0  0  0
    6.2999    1.2192   -0.3655 H   0  0  0  0  0  0
    6.4761   -1.2256   -0.9238 H   0  0  0  0  0  0
    7.6680   -0.6457    0.2139 H   0  0  0  0  0  0
    6.3566   -2.8490    0.8458 H   0  0  0  0  0  0
    6.5776   -1.6028    2.0533 H   0  0  0  0  0  0
   -5.7234    0.6488   -0.7879 H   0  0  0  0  0  0
   -4.3050    1.5262   -1.2539 H   0  0  0  0  0  0
   -5.4510    0.5596   -3.2749 H   0  0  0  0  0  0
   -3.8521   -0.2076   -3.1000 H   0  0  0  0  0  0
   -5.2564   -3.2885   -1.5422 H   0  0  0  0  0  0
   -3.7366   -2.5246   -2.0707 H   0  0  0  0  0  0
   -4.0808   -2.3020    0.4762 H   0  0  0  0  0  0
   -5.6007   -1.5225    0.1875 H   0  0  0  0  0  0
   -4.6440   -2.1969   -4.3555 H   0  0  0  0  0  0
   -6.2473   -1.3907   -4.5530 H   0  0  0  0  0  0
   -6.1543   -3.0280   -3.8195 H   0  0  0  0  0  0
    3.1414   -2.7730    2.5180 H   0  0  0  0  0  0
    3.9584   -3.6740    1.3109 H   0  0  0  0  0  0
   -6.4420   -1.3060   -2.1511 H   0  0  0  0  0  0
  1  6  2  0  0  0
  1  2  1  0  0  0
  1 31  1  0  0  0
  2  3  2  0  0  0
  2 30  1  0  0  0
  3  4  1  0  0  0
  3 36  1  0  0  0
  4  5  2  0  0  0
  4 35  1  0  0  0
  5  6  1  0  0  0
  5 37  1  0  0  0
  6 38  1  0  0  0
  7 23  1  0  0  0
  7  8  2  0  0  0
  7 12  1  0  0  0
  8  9  1  0  0  0
  9 10  2  0  0  0
  9 39  1  0  0  0
 10 13  1  0  0  0
 10 11  1  0  0  0
 11 12  2  0  0  0
 11 40  1  0  0  0
 12 41  1  0  0  0
 13 14  2  0  0  0
 13 16  1  0  0  0
 14 15  1  0  0  0
 14 42  1  0  0  0
 15 18  2  0  0  0
 16 17  2  0  0  0
 16 43  1  0  0  0
 17 18  1  0  0  0
 17 22  1  0  0  0
 18 19  1  0  0  0
 19 20  1  0  0  0
 19 44  1  0  0  0
 20 21  1  0  0  0
 20 45  1  0  0  0
 20 46  1  0  0  0
 21 22  1  0  0  0
 21 47  1  0  0  0
 21 48  1  0  0  0
 22 30  1  0  0  0
 23 24  1  0  0  0
 23 28  1  0  0  0
 24 25  1  0  0  0
 24 49  1  0  0  0
 24 50  1  0  0  0
 25 26  1  0  0  0
 25 51  1  0  0  0
 25 52  1  0  0  0
 26 27  1  0  0  0
 26 29  1  0  0  0
 26 62  1  0  0  0
 27 28  1  0  0  0
 27 53  1  0  0  0
 27 54  1  0  0  0
 28 55  1  0  0  0
 28 56  1  0  0  0
 29 57  1  0  0  0
 29 58  1  0  0  0
 29 59  1  0  0  0
 30 60  1  0  0  0
 30 61  1  0  0  0
 31 32  1  0  0  0
 31 33  1  0  0  0
 31 34  1  0  0  0
M  CHG  1  26   1
M  END
> <chembl_id>
CHEMBL1164180

> <chembl_pref_name>
None

> <s_m_source_file>
sdf/actives_sanitized.sdf

> <i_m_source_file_index>
45

> <i_lp_mmshare_version>
49012

> <i_m_ct_stereo_status>
1

> <i_f3d_flags>
0

> <s_epik_input>
W2NIXTFbY0hdYyhDbClbY0hdYyhjMUMoRikoRilGKVtDSDJdTjJbQ0gyXVtDSDJdW05IXWMoYzIzKW5bY0hdYyhbY0hdMyktYyhbY0hdW2NIXTQpW2NIXW5jNE41W0NIMl1bQ0gyXU4oW0NIM10pW0NIMl1bQ0gyXTU=

> <s_epik_cmdline>
J2VwaWtfcHl0aG9uJywgJy1waHQnLCAnMC41JywgJy1waCcsICc3LjUnLCAnLW50JywgJy1tYScsICcyMDAnLCAnLWltYWUnLCAnPGluZmlsZS5tYWU+JywgJy1vbWFlJywgJzxvdXRmaWxlLm1hZT4n

> <r_lp_tautomer_probability>
1

> <r_epik_Ionization_Penalty>
  0.4614

> <r_epik_Ionization_Penalty_Charging>
  0.2070

> <r_epik_Ionization_Penalty_Neutral>
  0.2544

> <r_epik_State_Penalty>
 -0.0000

> <r_epik_Charging_Adjusted_Penalty>
0.206994001871228

> <i_epik_Tot_Q>
1

> <i_epik_Tot_abs_Q>
1

> <s_lp_Force_Field>
OPLS3e

> <r_lp_Energy>
81.11802

> <b_lp_Chiralities_Consistent>
1

> <s_lp_Variant>
sdf/actives_sanitized.sdf:45-1

$$$$
sdf/actives_sanitized.sdf:46
                    3D
 Schrodinger Suite 2020-1.
 42 45  0  0  1  0            999 V2000
   -0.1887   -0.0074   -0.6374 N   0  0  0  0  0  0
   -2.5724    4.7575    1.1274 N   0  0  0  0  0  0
   -2.5771   -4.7560    1.1658 N   0  0  0  0  0  0
   -3.0149   -0.0037   -0.1914 C   0  0  0  0  0  0
   -2.1634    1.2467    0.0189 C   0  0  0  0  0  0
   -2.1653   -1.2542    0.0276 C   0  0  0  0  0  0
   -0.7777    1.2127   -0.2598 C   0  0  0  0  0  0
   -0.7795   -1.2241   -0.2513 C   0  0  0  0  0  0
   -3.7235   -0.0077   -1.5520 C   0  0  0  0  0  0
   -2.7395    2.4344    0.4859 C   0  0  0  0  0  0
   -2.7430   -2.4378    0.5037 C   0  0  0  0  0  0
   -0.0182    2.3789   -0.0573 C   0  0  0  0  0  0
   -0.0217   -2.3900   -0.0404 C   0  0  0  0  0  0
   -1.9749    3.5843    0.6689 C   0  0  0  0  0  0
   -1.9797   -3.5874    0.6952 C   0  0  0  0  0  0
   -0.6114    3.5551    0.3940 C   0  0  0  0  0  0
   -0.6164   -3.5622    0.4192 C   0  0  0  0  0  0
   -2.9936   -0.0102   -2.7480 C   0  0  0  0  0  0
   -5.1223   -0.0082   -1.5992 C   0  0  0  0  0  0
    1.1741   -0.0110   -1.1844 C   0  0  0  0  0  0
   -3.6547   -0.0138   -3.9731 C   0  0  0  0  0  0
   -5.7837   -0.0118   -2.8243 C   0  0  0  0  0  0
   -5.0469   -0.0147   -4.0061 C   0  0  0  0  0  0
   -2.0282    5.6080    1.1266 H   0  0  0  0  0  0
   -3.5801    4.7969    1.1797 H   0  0  0  0  0  0
   -2.0347   -5.6077    1.1787 H   0  0  0  0  0  0
   -3.5826   -4.7873    1.2537 H   0  0  0  0  0  0
   -3.7882   -0.0004    0.5802 H   0  0  0  0  0  0
   -3.7991    2.4591    0.6980 H   0  0  0  0  0  0
   -3.8025   -2.4588    0.7168 H   0  0  0  0  0  0
    1.0476    2.3896   -0.2284 H   0  0  0  0  0  0
    1.0443   -2.4027   -0.2104 H   0  0  0  0  0  0
   -0.0026    4.4360    0.5392 H   0  0  0  0  0  0
   -0.0088   -4.4428    0.5714 H   0  0  0  0  0  0
   -1.9144   -0.0092   -2.7357 H   0  0  0  0  0  0
   -5.7026   -0.0055   -0.6879 H   0  0  0  0  0  0
    1.3473   -0.8837   -1.8154 H   0  0  0  0  0  0
    1.9116   -0.0116   -0.3809 H   0  0  0  0  0  0
    1.3522    0.8592   -1.8170 H   0  0  0  0  0  0
   -3.0900   -0.0157   -4.8936 H   0  0  0  0  0  0
   -6.8632   -0.0121   -2.8580 H   0  0  0  0  0  0
   -5.5598   -0.0174   -4.9565 H   0  0  0  0  0  0
  1  7  1  0  0  0
  1  8  1  0  0  0
  1 20  1  0  0  0
  2 14  1  0  0  0
  2 24  1  0  0  0
  2 25  1  0  0  0
  3 15  1  0  0  0
  3 26  1  0  0  0
  3 27  1  0  0  0
  4  5  1  0  0  0
  4  6  1  0  0  0
  4  9  1  0  0  0
  4 28  1  0  0  0
  5  7  2  0  0  0
  5 10  1  0  0  0
  6  8  2  0  0  0
  6 11  1  0  0  0
  7 12  1  0  0  0
  8 13  1  0  0  0
  9 18  2  0  0  0
  9 19  1  0  0  0
 10 14  2  0  0  0
 10 29  1  0  0  0
 11 15  2  0  0  0
 11 30  1  0  0  0
 12 16  2  0  0  0
 12 31  1  0  0  0
 13 17  2  0  0  0
 13 32  1  0  0  0
 14 16  1  0  0  0
 15 17  1  0  0  0
 16 33  1  0  0  0
 17 34  1  0  0  0
 18 21  1  0  0  0
 18 35  1  0  0  0
 19 22  2  0  0  0
 19 36  1  0  0  0
 20 37  1  0  0  0
 20 38  1  0  0  0
 20 39  1  0  0  0
 21 23  2  0  0  0
 21 40  1  0  0  0
 22 23  1  0  0  0
 22 41  1  0  0  0
 23 42  1  0  0  0
M  END
> <chembl_id>
CHEMBL1991734

> <chembl_pref_name>
None

> <s_m_source_file>
sdf/actives_sanitized.sdf

> <i_m_source_file_index>
46

> <i_lp_mmshare_version>
49012

> <i_m_ct_stereo_status>
1

> <i_f3d_flags>
0

> <s_epik_input>
W05IMl1jKFtjSF0xKVtjSF1bY0hdYyhjMTIpTihbQ0gzXSljM2MoW2NIXWMoW05IMl0pW2NIXVtjSF0zKVtDSF0yYzRbY0hdW2NIXVtjSF1bY0hdW2NIXTQ=

> <s_epik_cmdline>
J2VwaWtfcHl0aG9uJywgJy1waHQnLCAnMC41JywgJy1waCcsICc3LjUnLCAnLW50JywgJy1tYScsICcyMDAnLCAnLWltYWUnLCAnPGluZmlsZS5tYWU+JywgJy1vbWFlJywgJzxvdXRmaWxlLm1hZT4n

> <r_epik_Ionization_Penalty>
  0.0196

> <r_epik_Ionization_Penalty_Charging>
  0.0000

> <r_epik_Ionization_Penalty_Neutral>
  0.0196

> <r_epik_State_Penalty>
  0.0156

> <r_epik_Charging_Adjusted_Penalty>
0.0155886988418403

> <i_epik_Tot_Q>
0

> <i_epik_Tot_abs_Q>
0

> <s_lp_Force_Field>
OPLS3e

> <r_lp_Energy>
49.844145

> <b_lp_Chiralities_Consistent>
1

> <s_lp_Variant>
sdf/actives_sanitized.sdf:46-1

$$$$
sdf/actives_sanitized.sdf:47
                    3D
 Schrodinger Suite 2020-1.
 70 73  0  0  1  0            999 V2000
   -3.8465    3.2596    1.0728 S   0  0  0  0  0  0
  -10.5181   14.8117    4.3349 F   0  0  0  0  0  0
   -1.2908    1.4340    0.8007 O   0  0  0  0  0  0
   -7.5576   11.3014    2.5153 O   0  0  0  0  0  0
   -0.7810    5.7751   -1.1204 N   0  0  0  0  0  0
   -2.1056    7.6568   -0.8396 N   0  0  0  0  0  0
   -0.2257    1.6008   -1.1941 N   0  0  0  0  0  0
   -6.8319   10.8595    0.3887 N   0  0  0  0  0  0
   -7.9184   12.7404    0.7682 N   0  0  0  0  0  0
    3.1813   -1.8116    0.3326 N   0  3  0  0  0  0
   -2.8995    5.4946    0.0289 C   0  0  0  0  0  0
   -2.5699    4.1045    0.1981 C   0  0  0  0  0  0
   -4.1828    5.8289    0.5952 C   0  0  0  0  0  0
   -1.3647    3.5524   -0.3052 C   0  0  0  0  0  0
   -1.9359    6.2861   -0.6416 C   0  0  0  0  0  0
   -4.8584    7.1552    0.5687 C   0  0  0  0  0  0
   -4.7600    4.7297    1.1956 C   0  0  0  0  0  0
   -0.5210    4.4619   -0.9552 C   0  0  0  0  0  0
   -0.9501    2.1039   -0.1752 C   0  0  0  0  0  0
   -5.2682    7.7061   -0.6465 C   0  0  0  0  0  0
   -5.1072    7.8356    1.7618 C   0  0  0  0  0  0
   -6.1732    9.6217    0.5211 C   0  0  0  0  0  0
   -5.9169    8.9373   -0.6693 C   0  0  0  0  0  0
   -5.7552    9.0679    1.7419 C   0  0  0  0  0  0
    0.2458    0.2210   -1.2935 C   0  0  0  0  0  0
   -7.4439   11.6089    1.3288 C   0  0  0  0  0  0
   -8.6665   13.7853    1.3446 C   0  0  0  0  0  0
    1.4313   -0.1061   -0.3655 C   0  0  0  0  0  0
   -9.2381   13.7561    2.6296 C   0  0  0  0  0  0
   -8.8568   14.9173    0.5444 C   0  0  0  0  0  0
   -9.9723   14.8465    3.0981 C   0  0  0  0  0  0
    1.9492   -1.5417   -0.5680 C   0  0  0  0  0  0
   -9.5914   16.0056    1.0155 C   0  0  0  0  0  0
  -10.1477   15.9709    2.2929 C   0  0  0  0  0  0
    2.7729   -2.1139    1.7970 C   0  0  0  0  0  0
    4.1049   -2.9094   -0.2537 C   0  0  0  0  0  0
    3.9306   -1.8117    2.7629 C   0  0  0  0  0  0
    4.9403   -2.3554   -1.4199 C   0  0  0  0  0  0
   -2.9403    8.1102   -0.4957 H   0  0  0  0  0  0
   -1.3827    8.1821   -1.3105 H   0  0  0  0  0  0
   -0.0002    2.2081   -1.9686 H   0  0  0  0  0  0
   -6.8879   11.2004   -0.5595 H   0  0  0  0  0  0
   -7.6931   12.8832   -0.2052 H   0  0  0  0  0  0
   -5.7156    4.7044    1.6993 H   0  0  0  0  0  0
    0.4297    4.1482   -1.3621 H   0  0  0  0  0  0
   -5.0850    7.1817   -1.5735 H   0  0  0  0  0  0
   -4.7927    7.4147    2.7060 H   0  0  0  0  0  0
   -6.2257    9.3505   -1.6192 H   0  0  0  0  0  0
   -5.9082    9.5710    2.6830 H   0  0  0  0  0  0
   -0.5750   -0.4786   -1.1214 H   0  0  0  0  0  0
    0.5391    0.0415   -2.3286 H   0  0  0  0  0  0
    2.2439    0.5981   -0.5497 H   0  0  0  0  0  0
    1.1243    0.0445    0.6688 H   0  0  0  0  0  0
   -9.1405   12.9039    3.2823 H   0  0  0  0  0  0
   -8.4345   14.9628   -0.4495 H   0  0  0  0  0  0
    2.2718   -1.6741   -1.5995 H   0  0  0  0  0  0
    1.2121   -2.3117   -0.3329 H   0  0  0  0  0  0
   -9.7302   16.8751    0.3901 H   0  0  0  0  0  0
  -10.7170   16.8135    2.6570 H   0  0  0  0  0  0
    1.9236   -1.4734    2.0305 H   0  0  0  0  0  0
    2.4422   -3.1536    1.8233 H   0  0  0  0  0  0
    4.7659   -3.2327    0.5490 H   0  0  0  0  0  0
    3.4613   -3.7451   -0.5344 H   0  0  0  0  0  0
    3.6065   -1.9420    3.7959 H   0  0  0  0  0  0
    4.2756   -0.7825    2.6575 H   0  0  0  0  0  0
    4.7861   -2.4695    2.6135 H   0  0  0  0  0  0
    5.6449   -3.1083   -1.7739 H   0  0  0  0  0  0
    5.5217   -1.4856   -1.1118 H   0  0  0  0  0  0
    4.3300   -2.0644   -2.2740 H   0  0  0  0  0  0
    3.7207   -0.9573    0.3511 H   0  0  0  0  0  0
  1 12  1  0  0  0
  1 17  1  0  0  0
  2 31  1  0  0  0
  3 19  2  0  0  0
  4 26  2  0  0  0
  5 15  2  0  0  0
  5 18  1  0  0  0
  6 15  1  0  0  0
  6 39  1  0  0  0
  6 40  1  0  0  0
  7 19  1  0  0  0
  7 25  1  0  0  0
  7 41  1  0  0  0
  8 22  1  0  0  0
  8 26  1  0  0  0
  8 42  1  0  0  0
  9 26  1  0  0  0
  9 27  1  0  0  0
  9 43  1  0  0  0
 10 32  1  0  0  0
 10 35  1  0  0  0
 10 36  1  0  0  0
 10 70  1  0  0  0
 11 12  2  0  0  0
 11 13  1  0  0  0
 11 15  1  0  0  0
 12 14  1  0  0  0
 13 16  1  0  0  0
 13 17  2  0  0  0
 14 18  2  0  0  0
 14 19  1  0  0  0
 16 20  2  0  0  0
 16 21  1  0  0  0
 17 44  1  0  0  0
 18 45  1  0  0  0
 20 23  1  0  0  0
 20 46  1  0  0  0
 21 24  2  0  0  0
 21 47  1  0  0  0
 22 23  2  0  0  0
 22 24  1  0  0  0
 23 48  1  0  0  0
 24 49  1  0  0  0
 25 28  1  0  0  0
 25 50  1  0  0  0
 25 51  1  0  0  0
 27 29  2  0  0  0
 27 30  1  0  0  0
 28 32  1  0  0  0
 28 52  1  0  0  0
 28 53  1  0  0  0
 29 31  1  0  0  0
 29 54  1  0  0  0
 30 33  2  0  0  0
 30 55  1  0  0  0
 31 34  2  0  0  0
 32 56  1  0  0  0
 32 57  1  0  0  0
 33 34  1  0  0  0
 33 58  1  0  0  0
 34 59  1  0  0  0
 35 37  1  0  0  0
 35 60  1  0  0  0
 35 61  1  0  0  0
 36 38  1  0  0  0
 36 62  1  0  0  0
 36 63  1  0  0  0
 37 64  1  0  0  0
 37 65  1  0  0  0
 37 66  1  0  0  0
 38 67  1  0  0  0
 38 68  1  0  0  0
 38 69  1  0  0  0
M  CHG  1  10   1
M  END
> <chembl_id>
CHEMBL1996649

> <chembl_pref_name>
None

> <s_m_source_file>
sdf/actives_sanitized.sdf

> <i_m_source_file_index>
47

> <i_lp_mmshare_version>
49012

> <i_m_ct_stereo_status>
1

> <i_f3d_flags>
0

> <s_epik_input>
W0NIM11bQ0gyXU4oW0NIMl1bQ0gzXSlbQ0gyXVtDSDJdW0NIMl1bTkhdQyg9TyljKFtjSF1uYzFbTkgyXSljKGMxMilzW2NIXWMyLWMzW2NIXVtjSF1jKFtjSF1bY0hdMylbTkhdQyg9TylbTkhdYzRbY0hdYyhGKVtjSF1bY0hdW2NIXTQ=

> <s_epik_cmdline>
J2VwaWtfcHl0aG9uJywgJy1waHQnLCAnMC41JywgJy1waCcsICc3LjUnLCAnLW50JywgJy1tYScsICcyMDAnLCAnLWltYWUnLCAnPGluZmlsZS5tYWU+JywgJy1vbWFlJywgJzxvdXRmaWxlLm1hZT4n

> <r_lp_tautomer_probability>
1

> <r_epik_Ionization_Penalty>
  0.0039

> <r_epik_Ionization_Penalty_Charging>
  0.0028

> <r_epik_Ionization_Penalty_Neutral>
  0.0011

> <r_epik_State_Penalty>
 -0.0000

> <r_epik_Charging_Adjusted_Penalty>
0.00276834781546993

> <i_epik_Tot_Q>
1

> <i_epik_Tot_abs_Q>
1

> <s_lp_Force_Field>
OPLS3e

> <r_lp_Energy>
66.167028

> <b_lp_Chiralities_Consistent>
1

> <s_lp_Variant>
sdf/actives_sanitized.sdf:47-1

$$$$
sdf/actives_sanitized.sdf:48
                    3D
 Schrodinger Suite 2020-1.
 64 68  0  0  1  0            999 V2000
   -8.7280    1.2829    0.6908 N   0  0  0  0  0  0
   -8.6715   -0.0683    0.3711 N   0  0  0  0  0  0
   -7.4316   -0.3997   -0.0411 C   0  0  0  0  0  0
   -6.6659    0.8360    0.0271 C   0  0  0  0  0  0
   -7.4709    1.8277    0.4876 C   0  0  0  0  0  0
   -5.2673    1.0858   -0.2920 C   0  0  0  0  0  0
   -4.8749    2.1626   -0.7459 O   0  0  0  0  0  0
   -4.4589    0.0291   -0.0475 N   0  0  0  0  0  0
   -9.7436   -0.9615    0.6125 C   0  0  0  0  0  0
  -10.4715   -0.8667    1.8065 C   0  0  0  0  0  0
  -11.5298   -1.7378    2.0498 C   0  0  0  0  0  0
  -11.8629   -2.7022    1.1016 C   0  0  0  0  0  0
  -11.1476   -2.8047   -0.0891 C   0  0  0  0  0  0
  -10.0882   -1.9356   -0.3356 C   0  0  0  0  0  0
   -7.0348   -1.5156   -0.3837 O   0  0  0  0  0  0
   -7.2500    3.2983    0.8341 C   0  0  0  0  0  0
   -9.8766    1.9430    0.0619 C   0  0  0  0  0  0
   -3.0679   -0.0787   -0.2226 C   0  0  0  0  0  0
   -2.1847    1.0140   -0.2383 C   0  0  0  0  0  0
   -0.8144    0.8092   -0.4046 C   0  0  0  0  0  0
   -0.3105   -0.4858   -0.5511 C   0  0  0  0  0  0
   -1.1841   -1.5757   -0.5166 C   0  0  0  0  0  0
   -2.5535   -1.3725   -0.3496 C   0  0  0  0  0  0
    0.0242    1.8710   -0.4224 F   0  0  0  0  0  0
    1.0400   -0.6838   -0.7193 O   0  0  0  0  0  0
    2.6838   -1.8009   -4.4335 N   0  0  0  0  0  0
    1.4623   -1.2238   -4.3548 C   0  0  0  0  0  0
    0.8709   -0.8384   -3.1571 C   0  0  0  0  0  0
    1.5522   -1.0531   -1.9498 C   0  0  0  0  0  0
    2.8470   -1.6490   -2.0040 C   0  0  0  0  0  0
    3.6303   -1.8984   -0.8500 C   0  0  0  0  0  0
    4.9000   -2.4884   -0.9470 C   0  0  0  0  0  0
    5.4114   -2.8427   -2.2017 C   0  0  0  0  0  0
    4.6527   -2.6065   -3.3580 C   0  0  0  0  0  0
    3.3740   -2.0115   -3.2790 C   0  0  0  0  0  0
    6.6697   -3.4194   -2.2228 O   0  0  0  0  0  0
    7.2489   -3.8009   -3.4662 C   0  0  0  0  0  0
    5.7028   -2.7504    0.1503 O   0  0  0  0  0  0
    5.2440   -2.4143    1.4555 C   0  0  0  0  0  0
   -4.9173   -0.8254    0.2349 H   0  0  0  0  0  0
  -10.2183   -0.1235    2.5490 H   0  0  0  0  0  0
  -12.0901   -1.6661    2.9703 H   0  0  0  0  0  0
  -12.6846   -3.3771    1.2914 H   0  0  0  0  0  0
  -11.4145   -3.5544   -0.8193 H   0  0  0  0  0  0
   -9.5444   -2.0189   -1.2657 H   0  0  0  0  0  0
   -6.2014    3.5866    0.7997 H   0  0  0  0  0  0
   -7.6040    3.5013    1.8451 H   0  0  0  0  0  0
   -7.7950    3.9428    0.1444 H   0  0  0  0  0  0
   -9.9243    2.9943    0.3463 H   0  0  0  0  0  0
  -10.8201    1.4923    0.3706 H   0  0  0  0  0  0
   -9.8114    1.8920   -1.0262 H   0  0  0  0  0  0
   -2.5355    2.0261   -0.1088 H   0  0  0  0  0  0
   -0.7991   -2.5795   -0.6218 H   0  0  0  0  0  0
   -3.2129   -2.2287   -0.3271 H   0  0  0  0  0  0
    0.9492   -1.0655   -5.2921 H   0  0  0  0  0  0
   -0.1043   -0.3746   -3.1747 H   0  0  0  0  0  0
    3.2207   -1.6202    0.1092 H   0  0  0  0  0  0
    5.0268   -2.8709   -4.3360 H   0  0  0  0  0  0
    8.2361   -4.2263   -3.2873 H   0  0  0  0  0  0
    7.3752   -2.9440   -4.1293 H   0  0  0  0  0  0
    6.6491   -4.5601   -3.9703 H   0  0  0  0  0  0
    6.0058   -2.6875    2.1857 H   0  0  0  0  0  0
    4.3328   -2.9573    1.7109 H   0  0  0  0  0  0
    5.0635   -1.3427    1.5528 H   0  0  0  0  0  0
  1  2  1  0  0  0
  1  5  1  0  0  0
  1 17  1  0  0  0
  2  3  1  0  0  0
  2  9  1  0  0  0
  3  4  1  0  0  0
  3 15  2  0  0  0
  4  5  2  0  0  0
  4  6  1  0  0  0
  5 16  1  0  0  0
  6  7  2  0  0  0
  6  8  1  0  0  0
  8 18  1  0  0  0
  8 40  1  0  0  0
  9 10  2  0  0  0
  9 14  1  0  0  0
 10 11  1  0  0  0
 10 41  1  0  0  0
 11 12  2  0  0  0
 11 42  1  0  0  0
 12 13  1  0  0  0
 12 43  1  0  0  0
 13 14  2  0  0  0
 13 44  1  0  0  0
 14 45  1  0  0  0
 16 46  1  0  0  0
 16 47  1  0  0  0
 16 48  1  0  0  0
 17 49  1  0  0  0
 17 50  1  0  0  0
 17 51  1  0  0  0
 18 19  2  0  0  0
 18 23  1  0  0  0
 19 20  1  0  0  0
 19 52  1  0  0  0
 20 21  2  0  0  0
 20 24  1  0  0  0
 21 22  1  0  0  0
 21 25  1  0  0  0
 22 23  2  0  0  0
 22 53  1  0  0  0
 23 54  1  0  0  0
 25 29  1  0  0  0
 26 27  2  0  0  0
 26 35  1  0  0  0
 27 28  1  0  0  0
 27 55  1  0  0  0
 28 29  2  0  0  0
 28 56  1  0  0  0
 29 30  1  0  0  0
 30 31  2  0  0  0
 30 35  1  0  0  0
 31 32  1  0  0  0
 31 57  1  0  0  0
 32 33  2  0  0  0
 32 38  1  0  0  0
 33 34  1  0  0  0
 33 36  1  0  0  0
 34 35  2  0  0  0
 34 58  1  0  0  0
 36 37  1  0  0  0
 37 59  1  0  0  0
 37 60  1  0  0  0
 37 61  1  0  0  0
 38 39  1  0  0  0
 39 62  1  0  0  0
 39 63  1  0  0  0
 39 64  1  0  0  0
M  END
> <chembl_id>
CHEMBL2031893

> <chembl_pref_name>
None

> <s_m_source_file>
sdf/actives_sanitized.sdf

> <i_m_source_file_index>
48

> <i_lp_mmshare_version>
49012

> <i_m_ct_stereo_status>
1

> <i_f3d_flags>
0

> <s_epik_input>
W2NIXTFbY0hdW2NIXVtjSF1bY0hdYzEtbihuMltDSDNdKWMoPU8pYyhjMltDSDNdKUMoPU8pW05IXWMzW2NIXWMoRiljKFtjSF1bY0hdMylPYzRbY0hdW2NIXW5jKGM0NSlbY0hdYyhPW0NIM10pYyhbY0hdNSlPW0NIM10=

> <s_epik_cmdline>
J2VwaWtfcHl0aG9uJywgJy1waHQnLCAnMC41JywgJy1waCcsICc3LjUnLCAnLW50JywgJy1tYScsICcyMDAnLCAnLWltYWUnLCAnPGluZmlsZS5tYWU+JywgJy1vbWFlJywgJzxvdXRmaWxlLm1hZT4n

> <r_lp_tautomer_probability>
1

> <r_epik_Ionization_Penalty>
  0.0525

> <r_epik_Ionization_Penalty_Charging>
  0.0000

> <r_epik_Ionization_Penalty_Neutral>
  0.0525

> <r_epik_State_Penalty>
  0.0450

> <r_epik_Charging_Adjusted_Penalty>
0.0450199835917868

> <i_epik_Tot_Q>
0

> <i_epik_Tot_abs_Q>
0

> <s_lp_Force_Field>
OPLS3e

> <r_lp_Energy>
64.317182

> <b_lp_Chiralities_Consistent>
1

> <s_lp_Variant>
sdf/actives_sanitized.sdf:48-1

$$$$
sdf/actives_sanitized.sdf:49
                    3D
 Schrodinger Suite 2020-1.
 41 44  0  0  1  0            999 V2000
    4.3481   -2.5982    0.3615 Cl  0  0  0  0  0  0
    2.1266    1.2813    0.0679 N   0  0  0  0  0  0
    5.9761    3.9209   -0.4266 N   0  0  0  0  0  0
    4.1988    0.0430    0.0854 N   0  0  0  0  0  0
    4.7854    6.0001   -0.7520 N   0  0  0  0  0  0
    0.0308    0.1359    0.2973 N   0  0  0  0  0  0
    4.2410    2.4688   -0.1985 C   0  0  0  0  0  0
    3.7192    3.8029   -0.4093 C   0  0  0  0  0  0
    3.4799    1.1944   -0.0010 C   0  0  0  0  0  0
    4.8367    4.6803   -0.5450 C   0  0  0  0  0  0
    5.6239    2.6110   -0.2233 C   0  0  0  0  0  0
    1.4347    0.1180    0.2243 C   0  0  0  0  0  0
    2.4418    4.3911   -0.5072 C   0  0  0  0  0  0
    3.4905   -1.1058    0.2462 C   0  0  0  0  0  0
    2.0938   -1.1124    0.3193 C   0  0  0  0  0  0
    2.3586    5.7676   -0.7249 C   0  0  0  0  0  0
    3.5309    6.5153   -0.8375 C   0  0  0  0  0  0
   -0.7425    1.3522    0.0389 C   0  0  0  0  0  0
   -2.1203    1.2281    0.7248 C   0  0  0  0  0  0
   -0.8963    1.5535   -1.4874 C   0  0  0  0  0  0
   -3.0099    2.4501    0.4184 C   0  0  0  0  0  0
   -1.7743    2.7810   -1.8005 C   0  0  0  0  0  0
   -3.1456    2.7001   -1.0981 C   0  0  0  0  0  0
    6.9361    4.2303   -0.4761 H   0  0  0  0  0  0
   -0.4466   -0.7482    0.1986 H   0  0  0  0  0  0
    6.4017    1.8698   -0.1088 H   0  0  0  0  0  0
    1.5409    3.8026   -0.4200 H   0  0  0  0  0  0
    1.5491   -2.0371    0.4465 H   0  0  0  0  0  0
    1.3950    6.2492   -0.8058 H   0  0  0  0  0  0
    3.4740    7.5808   -1.0052 H   0  0  0  0  0  0
   -0.2060    2.2084    0.4514 H   0  0  0  0  0  0
   -2.6282    0.3194    0.3954 H   0  0  0  0  0  0
   -1.9952    1.1344    1.8048 H   0  0  0  0  0  0
    0.0811    1.6842   -1.9545 H   0  0  0  0  0  0
   -1.3371    0.6654   -1.9444 H   0  0  0  0  0  0
   -3.9971    2.3117    0.8612 H   0  0  0  0  0  0
   -2.5850    3.3354    0.8943 H   0  0  0  0  0  0
   -1.2556    3.6868   -1.4819 H   0  0  0  0  0  0
   -1.9136    2.8737   -2.8782 H   0  0  0  0  0  0
   -3.7318    1.8952   -1.5447 H   0  0  0  0  0  0
   -3.7078    3.6179   -1.2743 H   0  0  0  0  0  0
  1 14  1  0  0  0
  2  9  2  0  0  0
  2 12  1  0  0  0
  3 10  1  0  0  0
  3 11  1  0  0  0
  3 24  1  0  0  0
  4  9  1  0  0  0
  4 14  2  0  0  0
  5 10  2  0  0  0
  5 17  1  0  0  0
  6 12  1  0  0  0
  6 18  1  0  0  0
  6 25  1  0  0  0
  7  8  1  0  0  0
  7  9  1  0  0  0
  7 11  2  0  0  0
  8 10  1  0  0  0
  8 13  2  0  0  0
 11 26  1  0  0  0
 12 15  2  0  0  0
 13 16  1  0  0  0
 13 27  1  0  0  0
 14 15  1  0  0  0
 15 28  1  0  0  0
 16 17  2  0  0  0
 16 29  1  0  0  0
 17 30  1  0  0  0
 18 19  1  0  0  0
 18 20  1  0  0  0
 18 31  1  0  0  0
 19 21  1  0  0  0
 19 32  1  0  0  0
 19 33  1  0  0  0
 20 22  1  0  0  0
 20 34  1  0  0  0
 20 35  1  0  0  0
 21 23  1  0  0  0
 21 36  1  0  0  0
 21 37  1  0  0  0
 22 23  1  0  0  0
 22 38  1  0  0  0
 22 39  1  0  0  0
 23 40  1  0  0  0
 23 41  1  0  0  0
M  END
> <chembl_id>
CHEMBL1997846

> <chembl_pref_name>
None

> <s_m_source_file>
sdf/actives_sanitized.sdf

> <i_m_source_file_index>
49

> <i_lp_mmshare_version>
49012

> <i_m_ct_stereo_status>
1

> <i_f3d_flags>
0

> <s_epik_input>
W0NIMl0xW0NIMl1bQ0gyXVtDSDJdW0NIMl1bQ0hdMVtOSF1jKFtjSF1jKENsKW4yKW5jMi1jM1tjSF1bbkhdYyhjMzQpbltjSF1bY0hdW2NIXTQ=

> <s_epik_cmdline>
J2VwaWtfcHl0aG9uJywgJy1waHQnLCAnMC41JywgJy1waCcsICc3LjUnLCAnLW50JywgJy1tYScsICcyMDAnLCAnLWltYWUnLCAnPGluZmlsZS5tYWU+JywgJy1vbWFlJywgJzxvdXRmaWxlLm1hZT4n

> <r_lp_tautomer_probability>
1

> <r_epik_Ionization_Penalty>
  0.0003

> <r_epik_Ionization_Penalty_Charging>
  0.0000

> <r_epik_Ionization_Penalty_Neutral>
  0.0003

> <r_epik_State_Penalty>
 -0.0000

> <r_epik_Charging_Adjusted_Penalty>
0

> <i_epik_Tot_Q>
0

> <i_epik_Tot_abs_Q>
0

> <s_lp_Force_Field>
OPLS3e

> <r_lp_Energy>
36.672579

> <b_lp_Chiralities_Consistent>
1

> <s_lp_Variant>
sdf/actives_sanitized.sdf:49-1

$$$$
sdf/actives_sanitized.sdf:50
                    3D
 Schrodinger Suite 2020-1.
 63 66  0  0  1  0            999 V2000
   -2.1939    9.1725    7.3652 Cl  0  0  0  0  0  0
    2.0114   10.9696    4.3367 Cl  0  0  0  0  0  0
    0.2880   -0.2532   -0.1158 O   0  0  0  0  0  0
    1.2008    7.6244    6.2240 O   0  0  0  0  0  0
    1.3492   -2.5136   -1.4367 N   0  3  0  0  0  0
    0.2254    6.7435    4.3306 N   0  0  0  0  0  0
   -0.7799    5.7968    2.3465 N   0  0  0  0  0  0
   -1.8177    4.8964    0.3891 N   0  0  0  0  0  0
   -2.2885    7.1024    0.9900 N   0  0  0  0  0  0
    1.8916   -2.0772   -0.0497 C   0  0  0  0  0  0
    2.1837   -1.9340   -2.6068 C   0  0  0  0  0  0
    1.1814   -4.0510   -1.5411 C   0  0  0  0  0  0
    1.6346   -0.5818    0.2213 C   0  0  0  0  0  0
   -0.6288    6.8585    3.1905 C   0  0  0  0  0  0
   -0.2617    9.0026    4.9786 C   0  0  0  0  0  0
   -1.2975    8.0677    2.9605 C   0  0  0  0  0  0
    1.3472   -1.8720   -3.8956 C   0  0  0  0  0  0
   -0.0548   -4.5255   -0.7595 C   0  0  0  0  0  0
    0.4556    7.7455    5.2467 C   0  0  0  0  0  0
   -1.0813    9.1573    3.9123 C   0  0  0  0  0  0
   -0.0767   10.1407    5.9125 C   0  0  0  0  0  0
   -0.1545    1.0460    0.0402 C   0  0  0  0  0  0
    0.9061    5.4487    4.5365 C   0  0  0  0  0  0
   -2.1250    8.1500    1.8399 C   0  0  0  0  0  0
   -1.6027    5.9637    1.2739 C   0  0  0  0  0  0
   -1.2316    3.6224    0.2970 C   0  0  0  0  0  0
   -1.4650    1.3081   -0.3591 C   0  0  0  0  0  0
    0.6234    2.0905    0.5629 C   0  0  0  0  0  0
   -0.9166   10.2940    7.0319 C   0  0  0  0  0  0
    0.9414   11.0881    5.6936 C   0  0  0  0  0  0
   -1.9994    2.5876   -0.2382 C   0  0  0  0  0  0
    0.0884    3.3699    0.6869 C   0  0  0  0  0  0
   -0.7354   11.3659    7.9071 C   0  0  0  0  0  0
    1.1120   12.1555    6.5763 C   0  0  0  0  0  0
    0.2765   12.2948    7.6810 C   0  0  0  0  0  0
   -2.5020    5.0924   -0.3269 H   0  0  0  0  0  0
    1.3644   -2.6738    0.6929 H   0  0  0  0  0  0
    2.9490   -2.3453   -0.0265 H   0  0  0  0  0  0
    2.4780   -0.9256   -2.3203 H   0  0  0  0  0  0
    3.0796   -2.5513   -2.6930 H   0  0  0  0  0  0
    1.0563   -4.2849   -2.5971 H   0  0  0  0  0  0
    2.1155   -4.4950   -1.1929 H   0  0  0  0  0  0
    2.3340    0.0359   -0.3434 H   0  0  0  0  0  0
    1.8147   -0.3794    1.2785 H   0  0  0  0  0  0
    1.9092   -1.3808   -4.6905 H   0  0  0  0  0  0
    0.4311   -1.2998   -3.7441 H   0  0  0  0  0  0
    1.0694   -2.8580   -4.2657 H   0  0  0  0  0  0
   -0.2232   -5.5899   -0.9258 H   0  0  0  0  0  0
   -0.9540   -3.9996   -1.0826 H   0  0  0  0  0  0
    0.0485   -4.3862    0.3156 H   0  0  0  0  0  0
   -1.5855   10.1017    3.7592 H   0  0  0  0  0  0
    1.5058    5.3944    5.4460 H   0  0  0  0  0  0
    1.5695    5.2393    3.6967 H   0  0  0  0  0  0
    0.1716    4.6442    4.5895 H   0  0  0  0  0  0
   -2.6693    9.0541    1.6078 H   0  0  0  0  0  0
   -2.0739    0.5146   -0.7672 H   0  0  0  0  0  0
    1.6438    1.9310    0.8762 H   0  0  0  0  0  0
   -3.0169    2.7671   -0.5554 H   0  0  0  0  0  0
    0.7164    4.1573    1.0754 H   0  0  0  0  0  0
   -1.3810   11.4795    8.7658 H   0  0  0  0  0  0
    1.8953   12.8796    6.4059 H   0  0  0  0  0  0
    0.4130   13.1222    8.3616 H   0  0  0  0  0  0
    0.4252   -2.1121   -1.5184 H   0  0  0  0  0  0
  1 29  1  0  0  0
  2 30  1  0  0  0
  3 13  1  0  0  0
  3 22  1  0  0  0
  4 19  2  0  0  0
  5 10  1  0  0  0
  5 11  1  0  0  0
  5 12  1  0  0  0
  5 63  1  0  0  0
  6 14  1  0  0  0
  6 19  1  0  0  0
  6 23  1  0  0  0
  7 14  2  0  0  0
  7 25  1  0  0  0
  8 25  1  0  0  0
  8 26  1  0  0  0
  8 36  1  0  0  0
  9 24  1  0  0  0
  9 25  2  0  0  0
 10 13  1  0  0  0
 10 37  1  0  0  0
 10 38  1  0  0  0
 11 17  1  0  0  0
 11 39  1  0  0  0
 11 40  1  0  0  0
 12 18  1  0  0  0
 12 41  1  0  0  0
 12 42  1  0  0  0
 13 43  1  0  0  0
 13 44  1  0  0  0
 14 16  1  0  0  0
 15 19  1  0  0  0
 15 20  2  0  0  0
 15 21  1  0  0  0
 16 20  1  0  0  0
 16 24  2  0  0  0
 17 45  1  0  0  0
 17 46  1  0  0  0
 17 47  1  0  0  0
 18 48  1  0  0  0
 18 49  1  0  0  0
 18 50  1  0  0  0
 20 51  1  0  0  0
 21 29  2  0  0  0
 21 30  1  0  0  0
 22 27  2  0  0  0
 22 28  1  0  0  0
 23 52  1  0  0  0
 23 53  1  0  0  0
 23 54  1  0  0  0
 24 55  1  0  0  0
 26 31  2  0  0  0
 26 32  1  0  0  0
 27 31  1  0  0  0
 27 56  1  0  0  0
 28 32  2  0  0  0
 28 57  1  0  0  0
 29 33  1  0  0  0
 30 34  2  0  0  0
 31 58  1  0  0  0
 32 59  1  0  0  0
 33 35  2  0  0  0
 33 60  1  0  0  0
 34 35  1  0  0  0
 34 61  1  0  0  0
 35 62  1  0  0  0
M  CHG  1   5   1
M  END
> <chembl_id>
CHEMBL49120

> <chembl_pref_name>
PD-0166285

> <s_m_source_file>
sdf/actives_sanitized.sdf

> <i_m_source_file_index>
50

> <i_lp_mmshare_version>
49012

> <i_m_ct_stereo_status>
1

> <i_f3d_flags>
0

> <s_epik_input>
Q2xjMVtjSF1bY0hdW2NIXWMoQ2wpYzEtYyhjKD1PKW4yW0NIM10pW2NIXWMoYzIzKVtjSF1uYyhuMylbTkhdYyhbY0hdW2NIXTQpW2NIXVtjSF1jNE9bQ0gyXVtDSDJdTihbQ0gyXVtDSDNdKVtDSDJdW0NIM10=

> <s_epik_cmdline>
J2VwaWtfcHl0aG9uJywgJy1waHQnLCAnMC41JywgJy1waCcsICc3LjUnLCAnLW50JywgJy1tYScsICcyMDAnLCAnLWltYWUnLCAnPGluZmlsZS5tYWU+JywgJy1vbWFlJywgJzxvdXRmaWxlLm1hZT4n

> <r_epik_Ionization_Penalty>
  0.0751

> <r_epik_Ionization_Penalty_Charging>
  0.0751

> <r_epik_Ionization_Penalty_Neutral>
  0.0000

> <r_epik_State_Penalty>
  0.0662

> <r_epik_Charging_Adjusted_Penalty>
0.141341823382436

> <i_epik_Tot_Q>
1

> <i_epik_Tot_abs_Q>
1

> <s_epik_Chemistry_Notes>
This compound has an imine and may undergo hydrolysis.

> <s_lp_Force_Field>
OPLS3e

> <r_lp_Energy>
64.706464

> <b_lp_Chiralities_Consistent>
1

> <s_lp_Variant>
sdf/actives_sanitized.sdf:50-1

$$$$
sdf/actives_sanitized.sdf:51
                    3D
 Schrodinger Suite 2020-1.
 47 49  0  0  1  0            999 V2000
   -6.0307    0.0519    3.3157 F   0  0  0  0  0  0
   -6.5954    1.0771    1.5103 F   0  0  0  0  0  0
   -6.1423    2.2015    3.2876 F   0  0  0  0  0  0
    6.7545    0.6896   -0.4143 O   0  0  0  0  0  0
   -0.0968    2.8850   -0.2227 N   0  0  0  0  0  0
   -1.7462    1.5532    0.9549 N   0  0  0  0  0  0
   -0.9144    5.0498   -0.9621 N   0  0  0  0  0  0
   -3.9789    2.3494    1.3314 N   0  0  0  0  0  0
    0.3817    0.6976    0.6183 N   0  0  0  0  0  0
    6.3292   -1.5293   -0.5536 N   0  0  0  0  0  0
   -2.3689    3.7276    0.1475 C   0  0  0  0  0  0
   -1.0391    3.8241   -0.3453 C   0  0  0  0  0  0
   -2.6850    2.5314    0.8161 C   0  0  0  0  0  0
   -0.5068    1.7699    0.4437 C   0  0  0  0  0  0
   -3.0345    4.9507   -0.2031 C   0  0  0  0  0  0
   -2.1087    5.7262   -0.8779 C   0  0  0  0  0  0
    1.7524    0.5175    0.3570 C   0  0  0  0  0  0
   -4.3115    1.1912    2.1579 C   0  0  0  0  0  0
   -5.7911    1.1317    2.5727 C   0  0  0  0  0  0
    4.4803    0.0024   -0.1174 C   0  0  0  0  0  0
    2.6464    1.5736    0.1482 C   0  0  0  0  0  0
    2.2323   -0.7925    0.3437 C   0  0  0  0  0  0
    3.9939    1.3167   -0.0890 C   0  0  0  0  0  0
    3.5794   -1.0510    0.1055 C   0  0  0  0  0  0
    5.9540   -0.2476   -0.3712 C   0  0  0  0  0  0
    7.6956   -1.9807   -0.8119 C   0  0  0  0  0  0
    8.1781   -1.7176   -2.2516 C   0  0  0  0  0  0
    9.5872   -2.2648   -2.5179 C   0  0  0  0  0  0
   -0.0980    5.4329   -1.4165 H   0  0  0  0  0  0
   -4.5927    3.1506    1.3663 H   0  0  0  0  0  0
   -0.0553   -0.1056    1.0456 H   0  0  0  0  0  0
    5.6224   -2.2482   -0.5052 H   0  0  0  0  0  0
   -4.0554    5.2352    0.0060 H   0  0  0  0  0  0
   -2.1971    6.7121   -1.3109 H   0  0  0  0  0  0
   -4.0269    0.2766    1.6350 H   0  0  0  0  0  0
   -3.6833    1.2168    3.0497 H   0  0  0  0  0  0
    2.3286    2.6030    0.1835 H   0  0  0  0  0  0
    1.5617   -1.6225    0.5151 H   0  0  0  0  0  0
    4.6556    2.1570   -0.2453 H   0  0  0  0  0  0
    3.9062   -2.0807    0.1039 H   0  0  0  0  0  0
    8.3898   -1.5404   -0.0931 H   0  0  0  0  0  0
    7.7414   -3.0513   -0.6090 H   0  0  0  0  0  0
    7.4813   -2.1670   -2.9605 H   0  0  0  0  0  0
    8.1729   -0.6453   -2.4533 H   0  0  0  0  0  0
    9.8982   -2.0565   -3.5420 H   0  0  0  0  0  0
    9.6262   -3.3449   -2.3737 H   0  0  0  0  0  0
   10.3206   -1.8106   -1.8507 H   0  0  0  0  0  0
  1 19  1  0  0  0
  2 19  1  0  0  0
  3 19  1  0  0  0
  4 25  2  0  0  0
  5 12  2  0  0  0
  5 14  1  0  0  0
  6 13  1  0  0  0
  6 14  2  0  0  0
  7 12  1  0  0  0
  7 16  1  0  0  0
  7 29  1  0  0  0
  8 13  1  0  0  0
  8 18  1  0  0  0
  8 30  1  0  0  0
  9 14  1  0  0  0
  9 17  1  0  0  0
  9 31  1  0  0  0
 10 25  1  0  0  0
 10 26  1  0  0  0
 10 32  1  0  0  0
 11 12  1  0  0  0
 11 13  2  0  0  0
 11 15  1  0  0  0
 15 16  2  0  0  0
 15 33  1  0  0  0
 16 34  1  0  0  0
 17 21  2  0  0  0
 17 22  1  0  0  0
 18 19  1  0  0  0
 18 35  1  0  0  0
 18 36  1  0  0  0
 20 23  2  0  0  0
 20 24  1  0  0  0
 20 25  1  0  0  0
 21 23  1  0  0  0
 21 37  1  0  0  0
 22 24  2  0  0  0
 22 38  1  0  0  0
 23 39  1  0  0  0
 24 40  1  0  0  0
 26 27  1  0  0  0
 26 41  1  0  0  0
 26 42  1  0  0  0
 27 28  1  0  0  0
 27 43  1  0  0  0
 27 44  1  0  0  0
 28 45  1  0  0  0
 28 46  1  0  0  0
 28 47  1  0  0  0
M  END
> <chembl_id>
CHEMBL2006765

> <chembl_pref_name>
None

> <s_m_source_file>
sdf/actives_sanitized.sdf

> <i_m_source_file_index>
51

> <i_lp_mmshare_version>
49012

> <i_m_ct_stereo_status>
1

> <i_f3d_flags>
0

> <s_epik_input>
RkMoRikoRilbQ0gyXVtOSF1jMW5jKG5jKGMxMilbbkhdW2NIXVtjSF0yKVtOSF1jM1tjSF1bY0hdYyhbY0hdW2NIXTMpQyg9TylbTkhdW0NIMl1bQ0gyXVtDSDNd

> <s_epik_cmdline>
J2VwaWtfcHl0aG9uJywgJy1waHQnLCAnMC41JywgJy1waCcsICc3LjUnLCAnLW50JywgJy1tYScsICcyMDAnLCAnLWltYWUnLCAnPGluZmlsZS5tYWU+JywgJy1vbWFlJywgJzxvdXRmaWxlLm1hZT4n

> <r_lp_tautomer_probability>
1

> <r_epik_Ionization_Penalty>
  0.0000

> <r_epik_Ionization_Penalty_Charging>
  0.0000

> <r_epik_Ionization_Penalty_Neutral>
  0.0000

> <r_epik_State_Penalty>
 -0.0000

> <r_epik_Charging_Adjusted_Penalty>
0

> <i_epik_Tot_Q>
0

> <i_epik_Tot_abs_Q>
0

> <s_lp_Force_Field>
OPLS3e

> <r_lp_Energy>
25.847712

> <b_lp_Chiralities_Consistent>
1

> <s_lp_Variant>
sdf/actives_sanitized.sdf:51-1

$$$$
sdf/actives_sanitized.sdf:52
                    3D
 Schrodinger Suite 2020-1.
 37 39  0  0  1  0            999 V2000
    4.2302   -2.7623   -0.7980 Cl  0  0  0  0  0  0
    2.1730    0.9977    0.4926 N   0  0  0  0  0  0
    0.3144    0.3262   -0.8666 N   0  0  0  0  0  0
    2.1942   -1.0508   -0.7697 N   0  0  0  0  0  0
   -1.8288    1.2146   -0.8438 N   0  0  0  0  0  0
    4.0645    1.6120    1.8299 N   0  0  0  0  0  0
   -2.3928    2.3845   -0.5260 N   0  0  0  0  0  0
    1.6035    0.1001   -0.3579 C   0  0  0  0  0  0
    3.4235    0.7205    0.9559 C   0  0  0  0  0  0
   -0.5444    1.3715   -0.6131 C   0  0  0  0  0  0
    3.4414   -1.3120   -0.2984 C   0  0  0  0  0  0
    4.0987   -0.4420    0.5747 C   0  0  0  0  0  0
   -0.2853    2.6796   -0.1639 C   0  0  0  0  0  0
   -1.5031    3.3324   -0.1004 C   0  0  0  0  0  0
    3.3677    2.7678    2.3838 C   0  0  0  0  0  0
    4.3284    3.6202    3.1945 C   0  0  0  0  0  0
   -1.9143    4.7267    0.3041 C   0  0  0  0  0  0
    4.9577    4.7171    2.5998 C   0  0  0  0  0  0
    4.6091    3.2842    4.5220 C   0  0  0  0  0  0
    5.8555    5.4855    3.3365 C   0  0  0  0  0  0
    5.5081    4.0525    5.2574 C   0  0  0  0  0  0
    6.1260    5.1501    4.6616 C   0  0  0  0  0  0
   -0.0125   -0.4464   -1.4284 H   0  0  0  0  0  0
    4.9417    1.3380    2.2484 H   0  0  0  0  0  0
   -3.3885    2.5335   -0.6066 H   0  0  0  0  0  0
    5.0917   -0.6643    0.9387 H   0  0  0  0  0  0
    0.6747    3.1051    0.0862 H   0  0  0  0  0  0
    2.9177    3.3602    1.5853 H   0  0  0  0  0  0
    2.5470    2.4302    3.0186 H   0  0  0  0  0  0
   -1.0574    5.3287    0.6075 H   0  0  0  0  0  0
   -2.6112    4.7133    1.1423 H   0  0  0  0  0  0
   -2.4047    5.2550   -0.5139 H   0  0  0  0  0  0
    4.7522    4.9746    1.5708 H   0  0  0  0  0  0
    4.1333    2.4302    4.9822 H   0  0  0  0  0  0
    6.3417    6.3362    2.8820 H   0  0  0  0  0  0
    5.7269    3.7980    6.2839 H   0  0  0  0  0  0
    6.8235    5.7456    5.2320 H   0  0  0  0  0  0
  1 11  1  0  0  0
  2  8  2  0  0  0
  2  9  1  0  0  0
  3  8  1  0  0  0
  3 10  1  0  0  0
  3 23  1  0  0  0
  4  8  1  0  0  0
  4 11  2  0  0  0
  5  7  1  0  0  0
  5 10  2  0  0  0
  6  9  1  0  0  0
  6 15  1  0  0  0
  6 24  1  0  0  0
  7 14  1  0  0  0
  7 25  1  0  0  0
  9 12  2  0  0  0
 10 13  1  0  0  0
 11 12  1  0  0  0
 12 26  1  0  0  0
 13 14  2  0  0  0
 13 27  1  0  0  0
 14 17  1  0  0  0
 15 16  1  0  0  0
 15 28  1  0  0  0
 15 29  1  0  0  0
 16 18  2  0  0  0
 16 19  1  0  0  0
 17 30  1  0  0  0
 17 31  1  0  0  0
 17 32  1  0  0  0
 18 20  1  0  0  0
 18 33  1  0  0  0
 19 21  2  0  0  0
 19 34  1  0  0  0
 20 22  2  0  0  0
 20 35  1  0  0  0
 21 22  1  0  0  0
 21 36  1  0  0  0
 22 37  1  0  0  0
M  END
> <chembl_id>
CHEMBL2005449

> <chembl_pref_name>
None

> <s_m_source_file>
sdf/actives_sanitized.sdf

> <i_m_source_file_index>
52

> <i_lp_mmshare_version>
49012

> <i_m_ct_stereo_status>
1

> <i_f3d_flags>
0

> <s_epik_input>
W2NIXTFbY0hdW2NIXVtjSF1bY0hdYzFbQ0gyXVtOSF1jKFtjSF1jKENsKW4yKW5jMltOSF1jM25bbkhdYyhbY0hdMylbQ0gzXQ==

> <s_epik_cmdline>
J2VwaWtfcHl0aG9uJywgJy1waHQnLCAnMC41JywgJy1waCcsICc3LjUnLCAnLW50JywgJy1tYScsICcyMDAnLCAnLWltYWUnLCAnPGluZmlsZS5tYWU+JywgJy1vbWFlJywgJzxvdXRmaWxlLm1hZT4n

> <r_lp_tautomer_probability>
1

> <r_epik_Ionization_Penalty>
  0.0003

> <r_epik_Ionization_Penalty_Charging>
  0.0000

> <r_epik_Ionization_Penalty_Neutral>
  0.0003

> <r_epik_State_Penalty>
 -0.0000

> <r_epik_Charging_Adjusted_Penalty>
0

> <i_epik_Tot_Q>
0

> <i_epik_Tot_abs_Q>
0

> <s_lp_Force_Field>
OPLS3e

> <r_lp_Energy>
22.799649

> <b_lp_Chiralities_Consistent>
1

> <s_lp_Variant>
sdf/actives_sanitized.sdf:52-1

$$$$
sdf/actives_sanitized.sdf:53
                    3D
 Schrodinger Suite 2020-1.
 38 41  0  0  1  0            999 V2000
   -0.3268   -0.1623    2.3617 O   0  0  0  0  0  0
    6.1317   -0.0090    1.6344 O   0  0  0  0  0  0
   -1.4278   -1.5322    0.8626 N   0  0  0  0  0  0
    2.1929   -1.1741   -0.1638 N   0  0  0  0  0  0
   -0.9378   -1.8978   -5.8706 N   0  0  0  0  0  0
    0.0232    0.0035   -0.0802 C   0  0  2  0  0  0
   -0.6068   -0.8620   -1.1343 C   0  0  0  0  0  0
    1.5554    0.0222   -0.0586 C   0  0  0  0  0  0
   -1.4649   -1.7454   -0.5078 C   0  0  0  0  0  0
   -0.5777   -0.5507    1.2221 C   0  0  0  0  0  0
    3.5522   -1.2093   -0.1715 C   0  0  0  0  0  0
    4.3300   -0.0392   -0.0095 C   0  0  0  0  0  0
   -0.4634   -0.8900   -2.5231 C   0  0  0  0  0  0
    2.2548    1.2229    0.0588 C   0  0  0  0  0  0
   -2.2016   -2.6781   -1.2358 C   0  0  0  0  0  0
   -1.1941   -1.8216   -3.2720 C   0  0  0  0  0  0
    3.6465    1.1791    0.0982 C   0  0  0  0  0  0
    5.8372   -0.1129    0.2540 C   0  0  2  0  0  0
   -2.0619   -2.7131   -2.6257 C   0  0  0  0  0  0
    4.2082   -2.5729   -0.3946 C   0  0  0  0  0  0
    6.4463   -1.4145   -0.3073 C   0  0  0  0  0  0
    5.6440   -2.6446    0.1524 C   0  0  0  0  0  0
   -1.0514   -1.8642   -4.7195 C   0  0  0  0  0  0
    5.8245    0.8445    1.9482 H   0  0  0  0  0  0
   -1.9629   -2.0687    1.5295 H   0  0  0  0  0  0
   -0.3318    1.0292   -0.1921 H   0  0  0  0  0  0
    0.2088   -0.1983   -3.0122 H   0  0  0  0  0  0
    1.7360    2.1662    0.1488 H   0  0  0  0  0  0
   -2.8702   -3.3710   -0.7463 H   0  0  0  0  0  0
    4.1984    2.0958    0.2475 H   0  0  0  0  0  0
    6.3311    0.7388   -0.2161 H   0  0  0  0  0  0
   -2.6312   -3.4378   -3.1916 H   0  0  0  0  0  0
    3.5995   -3.3744    0.0271 H   0  0  0  0  0  0
    4.2399   -2.7514   -1.4704 H   0  0  0  0  0  0
    6.4739   -1.3658   -1.3971 H   0  0  0  0  0  0
    7.4929   -1.5005   -0.0100 H   0  0  0  0  0  0
    5.6281   -2.6999    1.2420 H   0  0  0  0  0  0
    6.1262   -3.5596   -0.1934 H   0  0  0  0  0  0
  1 10  2  0  0  0
  2 18  1  0  0  0
  2 24  1  0  0  0
  3  9  1  0  0  0
  3 10  1  0  0  0
  3 25  1  0  0  0
  4  8  2  0  0  0
  4 11  1  0  0  0
  5 23  3  0  0  0
  6  7  1  0  0  0
  6  8  1  0  0  0
  6 10  1  0  0  0
  6 26  1  0  0  0
  7  9  2  0  0  0
  7 13  1  0  0  0
  8 14  1  0  0  0
  9 15  1  0  0  0
 11 12  2  0  0  0
 11 20  1  0  0  0
 12 17  1  0  0  0
 12 18  1  0  0  0
 13 16  2  0  0  0
 13 27  1  0  0  0
 14 17  2  0  0  0
 14 28  1  0  0  0
 15 19  2  0  0  0
 15 29  1  0  0  0
 16 19  1  0  0  0
 16 23  1  0  0  0
 17 30  1  0  0  0
 18 21  1  0  0  0
 18 31  1  0  0  0
 19 32  1  0  0  0
 20 22  1  0  0  0
 20 33  1  0  0  0
 20 34  1  0  0  0
 21 22  1  0  0  0
 21 35  1  0  0  0
 21 36  1  0  0  0
 22 37  1  0  0  0
 22 38  1  0  0  0
M  END
> <chembl_id>
CHEMBL1985681

> <chembl_pref_name>
None

> <s_m_source_file>
sdf/actives_sanitized.sdf

> <i_m_source_file_index>
53

> <i_lp_mmshare_version>
49012

> <i_m_ct_stereo_status>
1

> <i_f3d_flags>
0

> <s_epik_input>
TiNDYyhbY0hdMSlbY0hdW2NIXWMoYzEyKVtOSF1DKD1PKVtDQEhdMmMobjMpW2NIXVtjSF1jKGMzNClbQ0BASF0oW09IXSlbQ0gyXVtDSDJdW0NIMl00

> <s_epik_cmdline>
J2VwaWtfcHl0aG9uJywgJy1waHQnLCAnMC41JywgJy1waCcsICc3LjUnLCAnLW50JywgJy1tYScsICcyMDAnLCAnLWltYWUnLCAnPGluZmlsZS5tYWU+JywgJy1vbWFlJywgJzxvdXRmaWxlLm1hZT4n

> <r_epik_Ionization_Penalty>
  0.0821

> <r_epik_Ionization_Penalty_Charging>
  0.0000

> <r_epik_Ionization_Penalty_Neutral>
  0.0821

> <r_epik_State_Penalty>
  0.0728

> <r_epik_Charging_Adjusted_Penalty>
0.0728457706460353

> <i_epik_Tot_Q>
0

> <i_epik_Tot_abs_Q>
0

> <s_lp_Force_Field>
OPLS3e

> <r_lp_Energy>
28.370351

> <b_lp_Chiralities_Consistent>
1

> <s_lp_Variant>
sdf/actives_sanitized.sdf:53-1

$$$$
sdf/actives_sanitized.sdf:54
                    3D
 Schrodinger Suite 2020-1.
 54 56  0  0  1  0            999 V2000
   -3.7833    4.2404    0.6187 Cl  0  0  0  0  0  0
   -1.4854    5.9721    4.1062 S   0  0  0  0  0  0
   -2.1042    6.5790    2.9225 O   0  0  0  0  0  0
   -1.2423    6.7714    5.3130 O   0  0  0  0  0  0
    5.4612   -0.6412    0.6347 O   0  0  0  0  0  0
    4.5940    1.7750   -0.2344 O   0  0  0  0  0  0
    3.7991   -2.7612    0.9386 O   0  0  0  0  0  0
   -1.0032    3.9925    1.8210 N   0  0  0  0  0  0
   -0.4574    1.9891    0.6265 N   0  0  0  0  0  0
    0.0437   -0.0329   -0.5303 N   0  0  0  0  0  0
   -2.0441    0.9682   -0.8705 N   0  0  0  0  0  0
   -2.4702    4.5862    4.5701 N   0  0  2  0  0  0
    0.0916    5.2737    3.5732 C   0  0  0  0  0  0
    0.1741    4.3548    2.5063 C   0  0  0  0  0  0
   -1.3440    2.9839    0.9015 C   0  0  0  0  0  0
    1.4107   -0.1601   -0.2383 C   0  0  0  0  0  0
   -0.8375    1.0220   -0.2521 C   0  0  0  0  0  0
    4.1291   -0.4861    0.3328 C   0  0  0  0  0  0
    3.6619    0.7605   -0.1064 C   0  0  0  0  0  0
    3.2551   -1.5709    0.4900 C   0  0  0  0  0  0
   -2.6122    3.0056    0.2975 C   0  0  0  0  0  0
    2.2961    0.9099   -0.3929 C   0  0  0  0  0  0
    1.8953   -1.3958    0.1878 C   0  0  0  0  0  0
    1.2521    5.6536    4.2589 C   0  0  0  0  0  0
    1.4342    3.8476    2.1518 C   0  0  0  0  0  0
   -2.9170    1.9697   -0.5888 C   0  0  0  0  0  0
    2.4914    5.1331    3.8961 C   0  0  0  0  0  0
    2.5822    4.2307    2.8417 C   0  0  0  0  0  0
   -2.0399    3.7660    5.7147 C   0  0  0  0  0  0
    6.2591   -1.0608   -0.4641 C   0  0  0  0  0  0
    4.1869    3.0412   -0.7411 C   0  0  0  0  0  0
    2.9528   -3.8905    1.1256 C   0  0  0  0  0  0
   -1.7821    4.5979    2.0388 H   0  0  0  0  0  0
   -0.3407   -0.7667   -1.1076 H   0  0  0  0  0  0
   -2.8963    4.0704    3.7953 H   0  0  0  0  0  0
    1.9107    1.8556   -0.7425 H   0  0  0  0  0  0
    1.1985   -2.2139    0.2949 H   0  0  0  0  0  0
    1.2050    6.3544    5.0792 H   0  0  0  0  0  0
    1.5600    3.1643    1.3298 H   0  0  0  0  0  0
   -3.8764    1.9268   -1.0833 H   0  0  0  0  0  0
    3.3814    5.4318    4.4304 H   0  0  0  0  0  0
    3.5431    3.8309    2.5531 H   0  0  0  0  0  0
   -2.8449    3.0843    5.9893 H   0  0  0  0  0  0
   -1.7966    4.4004    6.5675 H   0  0  0  0  0  0
   -1.1746    3.1666    5.4300 H   0  0  0  0  0  0
    7.2962   -1.1569   -0.1430 H   0  0  0  0  0  0
    6.2293   -0.3376   -1.2809 H   0  0  0  0  0  0
    5.9379   -2.0316   -0.8457 H   0  0  0  0  0  0
    5.0546    3.6977   -0.8042 H   0  0  0  0  0  0
    3.4589    3.5210   -0.0869 H   0  0  0  0  0  0
    3.7655    2.9549   -1.7439 H   0  0  0  0  0  0
    3.5474   -4.7291    1.4871 H   0  0  0  0  0  0
    2.4835   -4.1981    0.1899 H   0  0  0  0  0  0
    2.1781   -3.6918    1.8678 H   0  0  0  0  0  0
  1 21  1  0  0  0
  2  3  2  0  0  0
  2  4  2  0  0  0
  2 12  1  0  0  0
  2 13  1  0  0  0
  5 18  1  0  0  0
  5 30  1  0  0  0
  6 19  1  0  0  0
  6 31  1  0  0  0
  7 20  1  0  0  0
  7 32  1  0  0  0
  8 14  1  0  0  0
  8 15  1  0  0  0
  8 33  1  0  0  0
  9 15  2  0  0  0
  9 17  1  0  0  0
 10 16  1  0  0  0
 10 17  1  0  0  0
 10 34  1  0  0  0
 11 17  2  0  0  0
 11 26  1  0  0  0
 12 29  1  0  0  0
 12 35  1  0  0  0
 13 14  2  0  0  0
 13 24  1  0  0  0
 14 25  1  0  0  0
 15 21  1  0  0  0
 16 22  2  0  0  0
 16 23  1  0  0  0
 18 19  2  0  0  0
 18 20  1  0  0  0
 19 22  1  0  0  0
 20 23  2  0  0  0
 21 26  2  0  0  0
 22 36  1  0  0  0
 23 37  1  0  0  0
 24 27  2  0  0  0
 24 38  1  0  0  0
 25 28  2  0  0  0
 25 39  1  0  0  0
 26 40  1  0  0  0
 27 28  1  0  0  0
 27 41  1  0  0  0
 28 42  1  0  0  0
 29 43  1  0  0  0
 29 44  1  0  0  0
 29 45  1  0  0  0
 30 46  1  0  0  0
 30 47  1  0  0  0
 30 48  1  0  0  0
 31 49  1  0  0  0
 31 50  1  0  0  0
 31 51  1  0  0  0
 32 52  1  0  0  0
 32 53  1  0  0  0
 32 54  1  0  0  0
M  END
> <chembl_id>
CHEMBL1993661

> <chembl_pref_name>
None

> <s_m_source_file>
sdf/actives_sanitized.sdf

> <i_m_source_file_index>
54

> <i_lp_mmshare_version>
49012

> <i_m_ct_stereo_status>
1

> <i_f3d_flags>
0

> <s_epik_input>
W0NIM11PYyhbY0hdMSljKE9bQ0gzXSljKE9bQ0gzXSlbY0hdYzFbTkhdYyhuW2NIXWMyQ2wpbmMyW05IXWMoYzNTKD1PKSg9TylbTkhdW0NIM10pW2NIXVtjSF1bY0hdW2NIXTM=

> <s_epik_cmdline>
J2VwaWtfcHl0aG9uJywgJy1waHQnLCAnMC41JywgJy1waCcsICc3LjUnLCAnLW50JywgJy1tYScsICcyMDAnLCAnLWltYWUnLCAnPGluZmlsZS5tYWU+JywgJy1vbWFlJywgJzxvdXRmaWxlLm1hZT4n

> <r_lp_tautomer_probability>
1

> <r_epik_Ionization_Penalty>
  0.0001

> <r_epik_Ionization_Penalty_Charging>
  0.0000

> <r_epik_Ionization_Penalty_Neutral>
  0.0001

> <r_epik_State_Penalty>
 -0.0000

> <r_epik_Charging_Adjusted_Penalty>
0

> <i_epik_Tot_Q>
0

> <i_epik_Tot_abs_Q>
0

> <s_lp_Force_Field>
OPLS3e

> <r_lp_Energy>
39.261352

> <b_lp_Chiralities_Consistent>
1

> <s_lp_Variant>
sdf/actives_sanitized.sdf:54-1

$$$$
sdf/actives_sanitized.sdf:55
                    3D
 Schrodinger Suite 2020-1.
 31 33  0  0  1  0            999 V2000
    0.0617    0.0758   -0.0778 N   0  0  0  0  0  0
   -0.5019    2.4483    0.0614 N   0  0  0  0  0  0
   -2.8924    2.9156    0.1212 N   0  0  0  0  0  0
   -4.5197    1.2285    0.0626 N   0  0  0  0  0  0
   -2.1474    0.6241   -0.0060 C   0  0  0  0  0  0
   -0.8176    1.1459   -0.0021 C   0  0  0  0  0  0
   -2.0454   -0.8095   -0.0758 C   0  0  0  0  0  0
   -0.6905   -1.0810   -0.1119 C   0  0  0  0  0  0
   -3.1742    1.5903    0.0588 C   0  0  0  0  0  0
    1.5311    0.1355   -0.0819 C   0  0  0  0  0  0
   -3.1221   -1.7866   -0.0992 C   0  0  0  0  0  0
   -1.5831    3.2680    0.1200 C   0  0  0  0  0  0
    2.1597   -0.6604   -1.2480 C   0  0  0  0  0  0
    2.1556   -0.4240    1.2157 C   0  0  0  0  0  0
    2.8686   -1.8523   -0.6005 C   0  0  0  0  0  0
    3.3141   -1.3183    0.7608 C   0  0  0  0  0  0
   -4.0348   -2.5975   -0.1137 C   0  0  0  0  0  0
   -4.7708    0.2513    0.0189 H   0  0  0  0  0  0
   -5.2249    1.9495    0.1108 H   0  0  0  0  0  0
   -0.1856   -2.0352   -0.1591 H   0  0  0  0  0  0
    1.7754    1.1899   -0.2215 H   0  0  0  0  0  0
   -1.3756    4.3267    0.1715 H   0  0  0  0  0  0
    1.4426   -0.9642   -2.0124 H   0  0  0  0  0  0
    2.8957   -0.0348   -1.7563 H   0  0  0  0  0  0
    2.5001    0.3704    1.8790 H   0  0  0  0  0  0
    1.4419   -1.0317    1.7756 H   0  0  0  0  0  0
    2.1730   -2.6831   -0.4711 H   0  0  0  0  0  0
    3.7060   -2.2128   -1.1992 H   0  0  0  0  0  0
    4.2249   -0.7270    0.6511 H   0  0  0  0  0  0
    3.5248   -2.1191    1.4709 H   0  0  0  0  0  0
   -4.8323   -3.3063   -0.1231 H   0  0  0  0  0  0
  1  6  1  0  0  0
  1  8  1  0  0  0
  1 10  1  0  0  0
  2  6  2  0  0  0
  2 12  1  0  0  0
  3  9  1  0  0  0
  3 12  2  0  0  0
  4  9  1  0  0  0
  4 18  1  0  0  0
  4 19  1  0  0  0
  5  6  1  0  0  0
  5  7  1  0  0  0
  5  9  2  0  0  0
  7  8  2  0  0  0
  7 11  1  0  0  0
  8 20  1  0  0  0
 10 13  1  0  0  0
 10 14  1  0  0  0
 10 21  1  0  0  0
 11 17  3  0  0  0
 12 22  1  0  0  0
 13 15  1  0  0  0
 13 23  1  0  0  0
 13 24  1  0  0  0
 14 16  1  0  0  0
 14 25  1  0  0  0
 14 26  1  0  0  0
 15 16  1  0  0  0
 15 27  1  0  0  0
 15 28  1  0  0  0
 16 29  1  0  0  0
 16 30  1  0  0  0
 17 31  1  0  0  0
M  END
> <chembl_id>
CHEMBL1993877

> <chembl_pref_name>
None

> <s_m_source_file>
sdf/actives_sanitized.sdf

> <i_m_source_file_index>
55

> <i_lp_mmshare_version>
49012

> <i_m_ct_stereo_status>
1

> <i_f3d_flags>
0

> <s_epik_input>
W0NIMl0xW0NIMl1bQ0gyXVtDSDJdW0NIXTFuKFtjSF1jMkMjW0NIXSljKGMyMyluW2NIXW5jM1tOSDJd

> <s_epik_cmdline>
J2VwaWtfcHl0aG9uJywgJy1waHQnLCAnMC41JywgJy1waCcsICc3LjUnLCAnLW50JywgJy1tYScsICcyMDAnLCAnLWltYWUnLCAnPGluZmlsZS5tYWU+JywgJy1vbWFlJywgJzxvdXRmaWxlLm1hZT4n

> <r_lp_tautomer_probability>
1

> <r_epik_Ionization_Penalty>
  0.0004

> <r_epik_Ionization_Penalty_Charging>
  0.0000

> <r_epik_Ionization_Penalty_Neutral>
  0.0004

> <r_epik_State_Penalty>
 -0.0000

> <r_epik_Charging_Adjusted_Penalty>
0

> <i_epik_Tot_Q>
0

> <i_epik_Tot_abs_Q>
0

> <s_lp_Force_Field>
OPLS3e

> <r_lp_Energy>
25.164288

> <b_lp_Chiralities_Consistent>
1

> <s_lp_Variant>
sdf/actives_sanitized.sdf:55-1

$$$$
sdf/actives_sanitized.sdf:56
                    3D
 Schrodinger Suite 2020-1.
 51 54  0  0  1  0            999 V2000
   -1.2420   -1.4244   -0.0348 S   0  0  0  0  0  0
    2.1077    0.7800    0.1897 N   0  0  0  0  0  0
   -2.2310    0.8954    0.4202 N   0  0  0  0  0  0
    4.2262    1.7138    0.4823 N   0  0  0  0  0  0
    4.0487   -0.4426   -0.5432 N   0  0  0  0  0  0
    9.6783    2.9498    0.2609 N   0  0  0  0  0  0
   -3.8234   -0.8863    0.4260 N   0  0  0  0  0  0
   12.4676    3.7257   -0.3407 N   0  3  0  0  0  0
   -0.1633   -0.0465   -0.0136 C   0  0  0  0  0  0
    1.3076   -0.2399   -0.2280 C   0  0  0  0  0  0
   -0.9369    1.1005    0.2462 C   0  0  0  0  0  0
   -2.5613   -0.3648    0.3050 C   0  0  0  0  0  0
    3.4474    0.6449    0.0117 C   0  0  0  0  0  0
    1.8475   -1.3905   -0.8199 C   0  0  0  0  0  0
    5.6005    1.9909    0.3853 C   0  0  0  0  0  0
    8.3351    2.6055    0.2957 C   0  0  0  0  0  0
    3.2352   -1.4478   -0.9561 C   0  0  0  0  0  0
   -0.4967    2.5477    0.3516 C   0  0  0  0  0  0
    6.3904    1.5344   -0.6754 C   0  0  0  0  0  0
    6.1760    2.7863    1.3770 C   0  0  0  0  0  0
    7.7474    1.8415   -0.7200 C   0  0  0  0  0  0
    7.5331    3.0937    1.3311 C   0  0  0  0  0  0
   10.6846    1.9714   -0.1873 C   0  0  0  0  0  0
   10.0300    4.3130   -0.1700 C   0  0  0  0  0  0
   12.1294    2.3358    0.2103 C   0  0  0  0  0  0
   11.4626    4.7457    0.2085 C   0  0  0  0  0  0
   -5.0352   -0.1031    0.6022 C   0  0  0  0  0  0
    3.6952    2.4176    0.9745 H   0  0  0  0  0  0
   -4.0092   -1.7925    0.0203 H   0  0  0  0  0  0
   13.4069    3.9858   -0.0740 H   0  0  0  0  0  0
    1.2291   -2.2068   -1.1621 H   0  0  0  0  0  0
    3.7139   -2.3077   -1.4013 H   0  0  0  0  0  0
    0.3913    2.7547   -0.2444 H   0  0  0  0  0  0
   -0.2622    2.8177    1.3812 H   0  0  0  0  0  0
   -1.2596    3.2460    0.0041 H   0  0  0  0  0  0
    5.9660    0.9536   -1.4800 H   0  0  0  0  0  0
    5.5768    3.1647    2.1930 H   0  0  0  0  0  0
    8.3353    1.4827   -1.5520 H   0  0  0  0  0  0
    7.9610    3.7076    2.1108 H   0  0  0  0  0  0
   10.4416    0.9898    0.2224 H   0  0  0  0  0  0
   10.6401    1.8898   -1.2747 H   0  0  0  0  0  0
    9.9283    4.3704   -1.2553 H   0  0  0  0  0  0
    9.3242    5.0279    0.2557 H   0  0  0  0  0  0
   12.8633    1.6604   -0.2302 H   0  0  0  0  0  0
   12.2789    2.3760    1.2908 H   0  0  0  0  0  0
   11.6215    4.7970    1.2871 H   0  0  0  0  0  0
   11.7404    5.6992   -0.2418 H   0  0  0  0  0  0
   -5.8674   -0.7536    0.8713 H   0  0  0  0  0  0
   -5.2930    0.4057   -0.3271 H   0  0  0  0  0  0
   -4.9087    0.6468    1.3838 H   0  0  0  0  0  0
   12.4258    3.7126   -1.3500 H   0  0  0  0  0  0
  1  9  1  0  0  0
  1 12  1  0  0  0
  2 10  2  0  0  0
  2 13  1  0  0  0
  3 11  1  0  0  0
  3 12  2  0  0  0
  4 13  1  0  0  0
  4 15  1  0  0  0
  4 28  1  0  0  0
  5 13  2  0  0  0
  5 17  1  0  0  0
  6 16  1  0  0  0
  6 23  1  0  0  0
  6 24  1  0  0  0
  7 12  1  0  0  0
  7 27  1  0  0  0
  7 29  1  0  0  0
  8 25  1  0  0  0
  8 26  1  0  0  0
  8 30  1  0  0  0
  8 51  1  0  0  0
  9 10  1  0  0  0
  9 11  2  0  0  0
 10 14  1  0  0  0
 11 18  1  0  0  0
 14 17  2  0  0  0
 14 31  1  0  0  0
 15 19  2  0  0  0
 15 20  1  0  0  0
 16 21  2  0  0  0
 16 22  1  0  0  0
 17 32  1  0  0  0
 18 33  1  0  0  0
 18 34  1  0  0  0
 18 35  1  0  0  0
 19 21  1  0  0  0
 19 36  1  0  0  0
 20 22  2  0  0  0
 20 37  1  0  0  0
 21 38  1  0  0  0
 22 39  1  0  0  0
 23 25  1  0  0  0
 23 40  1  0  0  0
 23 41  1  0  0  0
 24 26  1  0  0  0
 24 42  1  0  0  0
 24 43  1  0  0  0
 25 44  1  0  0  0
 25 45  1  0  0  0
 26 46  1  0  0  0
 26 47  1  0  0  0
 27 48  1  0  0  0
 27 49  1  0  0  0
 27 50  1  0  0  0
M  CHG  1   8   1
M  END
> <chembl_id>
CHEMBL1999484

> <chembl_pref_name>
None

> <s_m_source_file>
sdf/actives_sanitized.sdf

> <i_m_source_file_index>
56

> <i_lp_mmshare_version>
49012

> <i_m_ct_stereo_status>
1

> <i_f3d_flags>
0

> <s_epik_input>
W0NIM11jMW5jKFtOSF1bQ0gzXSlzYzEtYzJuYyhuW2NIXVtjSF0yKVtOSF1jM1tjSF1bY0hdYyhbY0hdW2NIXTMpTjRbQ0gyXVtDSDJdW05IXVtDSDJdW0NIMl00

> <s_epik_cmdline>
J2VwaWtfcHl0aG9uJywgJy1waHQnLCAnMC41JywgJy1waCcsICc3LjUnLCAnLW50JywgJy1tYScsICcyMDAnLCAnLWltYWUnLCAnPGluZmlsZS5tYWU+JywgJy1vbWFlJywgJzxvdXRmaWxlLm1hZT4n

> <r_lp_tautomer_probability>
1

> <r_epik_Ionization_Penalty>
  0.0300

> <r_epik_Ionization_Penalty_Charging>
  0.0267

> <r_epik_Ionization_Penalty_Neutral>
  0.0033

> <r_epik_State_Penalty>
 -0.0000

> <r_epik_Charging_Adjusted_Penalty>
0.0266924449129232

> <i_epik_Tot_Q>
1

> <i_epik_Tot_abs_Q>
1

> <s_lp_Force_Field>
OPLS3e

> <r_lp_Energy>
46.791061

> <b_lp_Chiralities_Consistent>
1

> <s_lp_Variant>
sdf/actives_sanitized.sdf:56-1

$$$$
sdf/actives_sanitized.sdf:57
                    3D
 Schrodinger Suite 2020-1.
 59 63  0  0  1  0            999 V2000
   -4.4025    4.3989    0.5407 F   0  0  0  0  0  0
   -2.9349    5.6058   -0.4812 F   0  0  0  0  0  0
   -2.9349    5.4915    1.6846 F   0  0  0  0  0  0
    7.5203    0.0065    2.7307 O   0  0  0  0  0  0
    5.0501    0.7862    5.2859 O   0  0  0  0  0  0
    5.8450   -1.0617    1.6607 N   0  0  0  0  0  0
    0.3835    0.3577    0.3820 N   0  0  0  0  0  0
    0.0907    2.7245    0.4411 N   0  0  0  0  0  0
   -1.7855    1.2262    0.4032 N   0  0  0  0  0  0
   -0.1912    5.0867    0.5460 N   0  0  0  0  0  0
    6.6834   -0.7890    5.2566 N   0  0  0  0  0  0
    4.7473   -1.9962    1.4601 C   0  0  1  0  0  0
    6.0009   -0.5090    0.3247 C   0  0  2  0  0  0
    3.7785   -0.9903    0.8569 C   0  0  0  0  0  0
    4.5541   -0.0702    0.1550 C   0  0  0  0  0  0
    5.3730   -2.8498    0.3318 C   0  0  0  0  0  0
    6.2365   -1.8283   -0.4473 C   0  0  0  0  0  0
    2.3945   -0.8431    0.9301 C   0  0  0  0  0  0
    6.5785   -0.7897    2.7642 C   0  0  0  0  0  0
    3.9591    1.0113   -0.4892 C   0  0  0  0  0  0
    1.7815    0.2429    0.2926 C   0  0  0  0  0  0
    2.5712    1.1584   -0.4258 C   0  0  0  0  0  0
   -2.1494    3.6227    0.5017 C   0  0  0  0  0  0
   -0.4551    1.4825    0.3960 C   0  0  0  0  0  0
   -0.7503    3.7951    0.4913 C   0  0  0  0  0  0
    6.2188   -1.5240    4.0768 C   0  0  0  0  0  0
   -3.1296    4.7986    0.5621 C   0  0  0  0  0  0
   -2.6140    2.3002    0.4530 C   0  0  0  0  0  0
    1.2337    5.3163    0.3165 C   0  0  0  0  0  0
    2.1839    4.8851    1.4479 C   0  0  0  0  0  0
    1.7225    6.7504    0.5664 C   0  0  0  0  0  0
    3.0129    6.1363    1.1282 C   0  0  0  0  0  0
    6.0798    0.3030    5.7557 C   0  0  0  0  0  0
    6.7325    0.9522    6.9716 C   0  0  0  0  0  0
   -0.1073   -0.5233    0.4292 H   0  0  0  0  0  0
   -0.8167    5.8673    0.4076 H   0  0  0  0  0  0
    7.5289   -1.1256    5.6934 H   0  0  0  0  0  0
    4.3988   -2.5519    2.3303 H   0  0  0  0  0  0
    6.7674    0.2583    0.2068 H   0  0  0  0  0  0
    5.9938   -3.6460    0.7457 H   0  0  0  0  0  0
    4.6127   -3.3164   -0.2966 H   0  0  0  0  0  0
    5.9424   -1.7472   -1.4949 H   0  0  0  0  0  0
    7.2902   -2.1109   -0.4206 H   0  0  0  0  0  0
    1.7997   -1.5531    1.4868 H   0  0  0  0  0  0
    4.5513    1.7322   -1.0332 H   0  0  0  0  0  0
    2.1204    1.9901   -0.9460 H   0  0  0  0  0  0
    6.6979   -2.5031    4.0770 H   0  0  0  0  0  0
    5.1420   -1.6726    4.1683 H   0  0  0  0  0  0
   -3.6701    2.0728    0.4569 H   0  0  0  0  0  0
    1.5015    4.9108   -0.6619 H   0  0  0  0  0  0
    1.7324    4.9036    2.4427 H   0  0  0  0  0  0
    2.6810    3.9250    1.3039 H   0  0  0  0  0  0
    1.8299    7.3719   -0.3231 H   0  0  0  0  0  0
    1.1425    7.2982    1.3129 H   0  0  0  0  0  0
    3.4451    6.6488    1.9882 H   0  0  0  0  0  0
    3.7874    5.9712    0.3762 H   0  0  0  0  0  0
    7.6348    0.4207    7.2769 H   0  0  0  0  0  0
    6.0378    0.9583    7.8117 H   0  0  0  0  0  0
    7.0043    1.9832    6.7445 H   0  0  0  0  0  0
  1 27  1  0  0  0
  2 27  1  0  0  0
  3 27  1  0  0  0
  4 19  2  0  0  0
  5 33  2  0  0  0
  6 12  1  0  0  0
  6 13  1  0  0  0
  6 19  1  0  0  0
  7 21  1  0  0  0
  7 24  1  0  0  0
  7 35  1  0  0  0
  8 24  2  0  0  0
  8 25  1  0  0  0
  9 24  1  0  0  0
  9 28  2  0  0  0
 10 25  1  0  0  0
 10 29  1  0  0  0
 10 36  1  0  0  0
 11 26  1  0  0  0
 11 33  1  0  0  0
 11 37  1  0  0  0
 12 14  1  0  0  0
 12 16  1  0  0  0
 12 38  1  0  0  0
 13 15  1  0  0  0
 13 17  1  0  0  0
 13 39  1  0  0  0
 14 15  2  0  0  0
 14 18  1  0  0  0
 15 20  1  0  0  0
 16 17  1  0  0  0
 16 40  1  0  0  0
 16 41  1  0  0  0
 17 42  1  0  0  0
 17 43  1  0  0  0
 18 21  2  0  0  0
 18 44  1  0  0  0
 19 26  1  0  0  0
 20 22  2  0  0  0
 20 45  1  0  0  0
 21 22  1  0  0  0
 22 46  1  0  0  0
 23 25  2  0  0  0
 23 27  1  0  0  0
 23 28  1  0  0  0
 26 47  1  0  0  0
 26 48  1  0  0  0
 28 49  1  0  0  0
 29 30  1  0  0  0
 29 31  1  0  0  0
 29 50  1  0  0  0
 30 32  1  0  0  0
 30 51  1  0  0  0
 30 52  1  0  0  0
 31 32  1  0  0  0
 31 53  1  0  0  0
 31 54  1  0  0  0
 32 55  1  0  0  0
 32 56  1  0  0  0
 33 34  1  0  0  0
 34 57  1  0  0  0
 34 58  1  0  0  0
 34 59  1  0  0  0
M  END
> <chembl_id>
CHEMBL1983111

> <chembl_pref_name>
None

> <s_m_source_file>
sdf/actives_sanitized.sdf

> <i_m_source_file_index>
57

> <i_lp_mmshare_version>
49012

> <i_m_ct_stereo_status>
1

> <i_f3d_flags>
0

> <s_epik_input>
W0NIMl0xW0NIMl1bQ0gyXVtDSF0xW05IXWMoYzJDKEYpKEYpRiluYyhuW2NIXTIpW05IXWMoW2NIXTMpW2NIXVtjSF1jKGMzW0NASF00NSlbQ0BIXShbQ0gyXVtDSDJdNSlONEMoPU8pW0NIMl1bTkhdQyg9TylbQ0gzXQ==

> <s_epik_cmdline>
J2VwaWtfcHl0aG9uJywgJy1waHQnLCAnMC41JywgJy1waCcsICc3LjUnLCAnLW50JywgJy1tYScsICcyMDAnLCAnLWltYWUnLCAnPGluZmlsZS5tYWU+JywgJy1vbWFlJywgJzxvdXRmaWxlLm1hZT4n

> <r_lp_tautomer_probability>
1

> <r_epik_Ionization_Penalty>
  0.0000

> <r_epik_Ionization_Penalty_Charging>
  0.0000

> <r_epik_Ionization_Penalty_Neutral>
  0.0000

> <r_epik_State_Penalty>
 -0.0000

> <r_epik_Charging_Adjusted_Penalty>
0

> <i_epik_Tot_Q>
0

> <i_epik_Tot_abs_Q>
0

> <s_lp_Force_Field>
OPLS3e

> <r_lp_Energy>
56.305236

> <b_lp_Chiralities_Consistent>
1

> <s_lp_Variant>
sdf/actives_sanitized.sdf:57-1

$$$$
sdf/actives_sanitized.sdf:58
                    3D
 Schrodinger Suite 2020-1.
 52 56  0  0  1  0            999 V2000
   -2.4741   -0.7994    0.5976 S   0  0  0  0  0  0
   10.3195   -3.6787   -3.6506 F   0  0  0  0  0  0
    6.1618   -1.4943   -2.1480 O   0  0  0  0  0  0
   -1.4486    3.4249   -0.6851 N   0  0  0  0  0  0
   -6.7201    0.8685    0.3281 N   0  0  0  0  0  0
    0.7895    2.8447   -0.8631 N   0  0  0  0  0  0
   -6.8233    2.1268    0.7673 N   0  0  0  0  0  0
    5.6695   -0.3391   -0.2302 N   0  0  0  0  0  0
    7.7852   -0.7165   -0.7354 N   0  0  0  0  0  0
   -0.8311    1.1404   -0.1306 C   0  0  0  0  0  0
   -2.2235    0.8723    0.1090 C   0  0  0  0  0  0
   -0.0044   -0.0194    0.0994 C   0  0  0  0  0  0
   -3.2051    1.8782   -0.0416 C   0  0  0  0  0  0
   -0.5133    2.4576   -0.5480 C   0  0  0  0  0  0
    1.4782   -0.1096   -0.0146 C   0  0  0  0  0  0
   -4.6667    1.6743    0.1892 C   0  0  0  0  0  0
   -0.7715   -1.1070    0.4642 C   0  0  0  0  0  0
   -2.7419    3.1341   -0.4317 C   0  0  0  0  0  0
   -5.4421    0.5469   -0.0460 C   0  0  0  0  0  0
   -5.6012    2.6018    0.6843 C   0  0  0  0  0  0
    2.2970    0.6641    0.8100 C   0  0  0  0  0  0
    2.0509   -0.9960   -0.9285 C   0  0  0  0  0  0
    4.2613   -0.3090   -0.2144 C   0  0  0  0  0  0
    3.6816    0.5644    0.7090 C   0  0  0  0  0  0
    3.4356   -1.0989   -1.0311 C   0  0  0  0  0  0
    6.5073   -0.9068   -1.1225 C   0  0  0  0  0  0
   -7.9086    0.0370    0.2580 C   0  0  0  0  0  0
    8.9695   -1.1755   -1.3420 C   0  0  0  0  0  0
    9.0363   -2.2532   -2.2427 C   0  0  0  0  0  0
   10.2626   -2.6428   -2.7833 C   0  0  0  0  0  0
   10.1500   -0.5175   -0.9808 C   0  0  0  0  0  0
   11.4302   -1.9688   -2.4274 C   0  0  0  0  0  0
   11.3742   -0.9084   -1.5241 C   0  0  0  0  0  0
    1.5387    2.1696   -0.8011 H   0  0  0  0  0  0
    0.9644    3.7920   -1.1669 H   0  0  0  0  0  0
    6.1024    0.1697    0.5265 H   0  0  0  0  0  0
    7.9285   -0.1211    0.0668 H   0  0  0  0  0  0
   -0.4062   -2.0982    0.6902 H   0  0  0  0  0  0
   -3.4304    3.9549   -0.5704 H   0  0  0  0  0  0
   -5.2071   -0.4309   -0.4397 H   0  0  0  0  0  0
   -5.3808    3.6162    0.9829 H   0  0  0  0  0  0
    1.8621    1.3429    1.5296 H   0  0  0  0  0  0
    1.4243   -1.6085   -1.5608 H   0  0  0  0  0  0
    4.2995    1.1731    1.3541 H   0  0  0  0  0  0
    3.8333   -1.8064   -1.7406 H   0  0  0  0  0  0
   -7.6319   -0.9886    0.0101 H   0  0  0  0  0  0
   -8.5766    0.4240   -0.5124 H   0  0  0  0  0  0
   -8.4203    0.0439    1.2216 H   0  0  0  0  0  0
    8.1582   -2.8118   -2.5264 H   0  0  0  0  0  0
   10.1257    0.3067   -0.2819 H   0  0  0  0  0  0
   12.3785   -2.2703   -2.8476 H   0  0  0  0  0  0
   12.2790   -0.3891   -1.2451 H   0  0  0  0  0  0
  1 11  1  0  0  0
  1 17  1  0  0  0
  2 30  1  0  0  0
  3 26  2  0  0  0
  4 14  2  0  0  0
  4 18  1  0  0  0
  5  7  1  0  0  0
  5 19  1  0  0  0
  5 27  1  0  0  0
  6 14  1  0  0  0
  6 34  1  0  0  0
  6 35  1  0  0  0
  7 20  2  0  0  0
  8 23  1  0  0  0
  8 26  1  0  0  0
  8 36  1  0  0  0
  9 26  1  0  0  0
  9 28  1  0  0  0
  9 37  1  0  0  0
 10 11  2  0  0  0
 10 12  1  0  0  0
 10 14  1  0  0  0
 11 13  1  0  0  0
 12 15  1  0  0  0
 12 17  2  0  0  0
 13 16  1  0  0  0
 13 18  2  0  0  0
 15 21  2  0  0  0
 15 22  1  0  0  0
 16 19  2  0  0  0
 16 20  1  0  0  0
 17 38  1  0  0  0
 18 39  1  0  0  0
 19 40  1  0  0  0
 20 41  1  0  0  0
 21 24  1  0  0  0
 21 42  1  0  0  0
 22 25  2  0  0  0
 22 43  1  0  0  0
 23 24  2  0  0  0
 23 25  1  0  0  0
 24 44  1  0  0  0
 25 45  1  0  0  0
 27 46  1  0  0  0
 27 47  1  0  0  0
 27 48  1  0  0  0
 28 29  2  0  0  0
 28 31  1  0  0  0
 29 30  1  0  0  0
 29 49  1  0  0  0
 30 32  2  0  0  0
 31 33  2  0  0  0
 31 50  1  0  0  0
 32 33  1  0  0  0
 32 51  1  0  0  0
 33 52  1  0  0  0
M  END
> <chembl_id>
CHEMBL1970317

> <chembl_pref_name>
None

> <s_m_source_file>
sdf/actives_sanitized.sdf

> <i_m_source_file_index>
58

> <i_lp_mmshare_version>
49012

> <i_m_ct_stereo_status>
1

> <i_f3d_flags>
0

> <s_epik_input>
W0NIM11uMW5bY0hdYyhbY0hdMSktYyhbY0hdbmMyW05IMl0pYyhjMjMpc1tjSF1jMy1jNFtjSF1bY0hdYyhbY0hdW2NIXTQpW05IXUMoPU8pW05IXWM1W2NIXWMoRilbY0hdW2NIXVtjSF01

> <s_epik_cmdline>
J2VwaWtfcHl0aG9uJywgJy1waHQnLCAnMC41JywgJy1waCcsICc3LjUnLCAnLW50JywgJy1tYScsICcyMDAnLCAnLWltYWUnLCAnPGluZmlsZS5tYWU+JywgJy1vbWFlJywgJzxvdXRmaWxlLm1hZT4n

> <r_lp_tautomer_probability>
1

> <r_epik_Ionization_Penalty>
  0.1173

> <r_epik_Ionization_Penalty_Charging>
  0.0000

> <r_epik_Ionization_Penalty_Neutral>
  0.1173

> <r_epik_State_Penalty>
  0.1069

> <r_epik_Charging_Adjusted_Penalty>
0.106864179686305

> <i_epik_Tot_Q>
0

> <i_epik_Tot_abs_Q>
0

> <s_lp_Force_Field>
OPLS3e

> <r_lp_Energy>
53.206769

> <b_lp_Chiralities_Consistent>
1

> <s_lp_Variant>
sdf/actives_sanitized.sdf:58-1

$$$$
sdf/actives_sanitized.sdf:59
                    3D
 Schrodinger Suite 2020-1.
 57 61  0  0  1  0            999 V2000
   -0.5240    3.5869    0.2812 C   0  0  0  0  0  0
   -1.8838    3.8767    0.1123 C   0  0  0  0  0  0
   -2.7853    2.8473   -0.2003 C   0  0  0  0  0  0
   -0.0672    2.2674    0.1411 C   0  0  0  0  0  0
   -0.9590    1.2147   -0.1761 C   0  0  0  0  0  0
   -2.3421    1.5142   -0.3505 C   0  0  0  0  0  0
   -3.2564    0.5527   -0.6594 N   0  0  0  0  0  0
   -2.8249   -0.7233   -0.8021 C   0  0  0  0  0  0
   -1.4962   -1.1056   -0.6520 C   0  0  0  0  0  0
   -0.5381   -0.1358   -0.3396 C   0  0  0  0  0  0
    0.3088    4.6512    0.5825 O   0  0  0  0  0  0
    1.7046    4.4274    0.7524 C   0  0  0  0  0  0
   -2.2632    5.1990    0.2668 O   0  0  0  0  0  0
   -3.6305    5.5627    0.1088 C   0  0  0  0  0  0
    0.7858   -0.4700   -0.1598 O   0  0  0  0  0  0
    1.4350   -1.1548   -1.1592 C   0  0  0  0  0  0
    1.8669   -2.4647   -0.9430 C   0  0  0  0  0  0
    2.5389   -3.1553   -1.9523 C   0  0  0  0  0  0
    2.7981   -2.5566   -3.1949 C   0  0  0  0  0  0
    2.3544   -1.2394   -3.3951 C   0  0  0  0  0  0
    1.6815   -0.5448   -2.3911 C   0  0  0  0  0  0
    1.6382   -3.0696    0.2458 F   0  0  0  0  0  0
    3.5316   -3.3000   -4.2649 C   0  0  0  0  0  0
    4.2860   -2.5536   -5.1237 N   0  0  0  0  0  0
    4.9825   -3.1374   -6.1132 N   0  0  0  0  0  0
    4.9396   -4.4884   -6.2673 C   0  0  0  0  0  0
    4.1761   -5.3022   -5.4291 C   0  0  0  0  0  0
    3.4551   -4.6923   -4.4045 C   0  0  0  0  0  0
    5.7624   -5.0728   -7.4083 C   0  0  0  0  0  0
    7.2519   -4.7611   -7.3264 C   0  0  0  0  0  0
    8.0802   -5.5372   -6.5110 C   0  0  0  0  0  0
    9.4440   -5.2638   -6.4448 C   0  0  0  0  0  0
    9.9757   -4.2193   -7.1985 C   0  0  0  0  0  0
    9.1568   -3.4477   -8.0203 C   0  0  0  0  0  0
    7.7932   -3.7211   -8.0876 C   0  0  0  0  0  0
   -3.8379    3.0479   -0.3357 H   0  0  0  0  0  0
    0.9770    2.0243    0.2676 H   0  0  0  0  0  0
   -3.5799   -1.4576   -1.0414 H   0  0  0  0  0  0
   -1.2136   -2.1414   -0.7706 H   0  0  0  0  0  0
    2.1958    5.3741    0.9766 H   0  0  0  0  0  0
    2.1591    4.0274   -0.1553 H   0  0  0  0  0  0
    1.9030    3.7482    1.5828 H   0  0  0  0  0  0
   -3.7365    6.6363    0.2634 H   0  0  0  0  0  0
   -4.2654    5.0600    0.8400 H   0  0  0  0  0  0
   -3.9909    5.3375   -0.8961 H   0  0  0  0  0  0
    2.8713   -4.1634   -1.7525 H   0  0  0  0  0  0
    2.5289   -0.7410   -4.3378 H   0  0  0  0  0  0
    1.3538    0.4692   -2.5682 H   0  0  0  0  0  0
    4.1422   -6.3737   -5.5633 H   0  0  0  0  0  0
    2.8507   -5.2940   -3.7421 H   0  0  0  0  0  0
    5.6330   -6.1559   -7.4466 H   0  0  0  0  0  0
    5.3576   -4.7000   -8.3508 H   0  0  0  0  0  0
    7.6682   -6.3469   -5.9264 H   0  0  0  0  0  0
   10.0867   -5.8585   -5.8124 H   0  0  0  0  0  0
   11.0331   -4.0060   -7.1459 H   0  0  0  0  0  0
    9.5773   -2.6408   -8.6023 H   0  0  0  0  0  0
    7.1596   -3.1208   -8.7244 H   0  0  0  0  0  0
  1  4  2  0  0  0
  1 11  1  0  0  0
  1  2  1  0  0  0
  2  3  2  0  0  0
  2 13  1  0  0  0
  3  6  1  0  0  0
  3 36  1  0  0  0
  4  5  1  0  0  0
  4 37  1  0  0  0
  5 10  2  0  0  0
  5  6  1  0  0  0
  6  7  2  0  0  0
  7  8  1  0  0  0
  8  9  2  0  0  0
  8 38  1  0  0  0
  9 10  1  0  0  0
  9 39  1  0  0  0
 10 15  1  0  0  0
 11 12  1  0  0  0
 12 40  1  0  0  0
 12 41  1  0  0  0
 12 42  1  0  0  0
 13 14  1  0  0  0
 14 43  1  0  0  0
 14 44  1  0  0  0
 14 45  1  0  0  0
 15 16  1  0  0  0
 16 17  2  0  0  0
 16 21  1  0  0  0
 17 18  1  0  0  0
 17 22  1  0  0  0
 18 19  2  0  0  0
 18 46  1  0  0  0
 19 20  1  0  0  0
 19 23  1  0  0  0
 20 21  2  0  0  0
 20 47  1  0  0  0
 21 48  1  0  0  0
 23 24  2  0  0  0
 23 28  1  0  0  0
 24 25  1  0  0  0
 25 26  2  0  0  0
 26 27  1  0  0  0
 26 29  1  0  0  0
 27 28  2  0  0  0
 27 49  1  0  0  0
 28 50  1  0  0  0
 29 30  1  0  0  0
 29 51  1  0  0  0
 29 52  1  0  0  0
 30 31  2  0  0  0
 30 35  1  0  0  0
 31 32  1  0  0  0
 31 53  1  0  0  0
 32 33  2  0  0  0
 32 54  1  0  0  0
 33 34  1  0  0  0
 33 55  1  0  0  0
 34 35  2  0  0  0
 34 56  1  0  0  0
 35 57  1  0  0  0
M  END
> <chembl_id>
CHEMBL460772

> <chembl_pref_name>
None

> <s_m_source_file>
sdf/actives_sanitized.sdf

> <i_m_source_file_index>
59

> <i_lp_mmshare_version>
49012

> <i_m_ct_stereo_status>
1

> <i_f3d_flags>
0

> <s_epik_input>
W0NIM11PYyhbY0hdMSljKE9bQ0gzXSlbY0hdYyhjMTIpbltjSF1bY0hdYzJPYzNjKEYpW2NIXWMoW2NIXVtjSF0zKS1jNG5uYyhbY0hdW2NIXTQpW0NIMl1jNVtjSF1bY0hdW2NIXVtjSF1bY0hdNQ==

> <s_epik_cmdline>
J2VwaWtfcHl0aG9uJywgJy1waHQnLCAnMC41JywgJy1waCcsICc3LjUnLCAnLW50JywgJy1tYScsICcyMDAnLCAnLWltYWUnLCAnPGluZmlsZS5tYWU+JywgJy1vbWFlJywgJzxvdXRmaWxlLm1hZT4n

> <r_lp_tautomer_probability>
1

> <r_epik_Ionization_Penalty>
  0.0525

> <r_epik_Ionization_Penalty_Charging>
  0.0000

> <r_epik_Ionization_Penalty_Neutral>
  0.0525

> <r_epik_State_Penalty>
  0.0450

> <r_epik_Charging_Adjusted_Penalty>
0.0450199817353599

> <i_epik_Tot_Q>
0

> <i_epik_Tot_abs_Q>
0

> <s_lp_Force_Field>
OPLS3e

> <r_lp_Energy>
65.278384

> <b_lp_Chiralities_Consistent>
1

> <s_lp_Variant>
sdf/actives_sanitized.sdf:59-1

$$$$
sdf/actives_sanitized.sdf:60
                    3D
 Schrodinger Suite 2020-1.
 57 59  0  0  1  0            999 V2000
   -7.9117    7.4139   -1.6424 F   0  0  0  0  0  0
   -1.4362    8.0223    1.3981 O   0  0  0  0  0  0
    1.5245    2.4340    2.6061 O   0  0  0  0  0  0
   -3.2828    9.1633    0.7058 N   0  0  0  0  0  0
   -0.5430    5.4616    0.5478 N   0  0  0  0  0  0
   -0.2138    1.1406    1.9282 N   0  0  0  0  0  0
    1.3778   -0.7607    0.2144 N   0  3  0  0  0  0
   -3.3468    6.9560    0.3258 C   0  0  0  0  0  0
   -4.5918    7.5656   -0.1336 C   0  0  0  0  0  0
   -1.7913    4.9252    0.7039 C   0  0  0  0  0  0
   -0.2312    3.4482    1.4311 C   0  0  0  0  0  0
   -4.4996    8.9154    0.1173 C   0  0  0  0  0  0
   -1.6320    3.6466    1.2422 C   0  0  0  0  0  0
   -2.5475    8.0485    0.8728 C   0  0  0  0  0  0
   -2.9923    5.6477    0.2917 C   0  0  0  0  0  0
    0.4230    4.6088    0.9997 C   0  0  0  0  0  0
   -5.7434    7.0442   -0.7303 C   0  0  0  0  0  0
    0.4324    2.3152    2.0483 C   0  0  0  0  0  0
   -5.5332    9.7931   -0.2085 C   0  0  0  0  0  0
   -6.7925    7.9064   -1.0653 C   0  0  0  0  0  0
   -6.6871    9.2773   -0.8050 C   0  0  0  0  0  0
   -2.7742    2.7244    1.6338 C   0  0  0  0  0  0
    1.8793    5.0258    0.9551 C   0  0  0  0  0  0
    0.2617   -0.1530    2.4253 C   0  0  0  0  0  0
    1.5573   -0.6621    1.7516 C   0  0  0  0  0  0
    0.6361   -2.0548   -0.2018 C   0  0  0  0  0  0
    2.7096   -0.5564   -0.5492 C   0  0  0  0  0  0
   -0.0358   -1.8840   -1.5738 C   0  0  0  0  0  0
    3.1085    0.9295   -0.5520 C   0  0  0  0  0  0
   -2.9743   10.0781    1.0015 H   0  0  0  0  0  0
   -0.3624    6.3845    0.1791 H   0  0  0  0  0  0
   -1.1237    1.1430    1.4903 H   0  0  0  0  0  0
   -3.7369    4.9687   -0.0982 H   0  0  0  0  0  0
   -5.8362    5.9881   -0.9368 H   0  0  0  0  0  0
   -5.4580   10.8519   -0.0081 H   0  0  0  0  0  0
   -7.5000    9.9392   -1.0648 H   0  0  0  0  0  0
   -2.5991    2.2609    2.6047 H   0  0  0  0  0  0
   -2.9023    1.9118    0.9187 H   0  0  0  0  0  0
   -3.7247    3.2500    1.7294 H   0  0  0  0  0  0
    2.5480    4.1722    0.8448 H   0  0  0  0  0  0
    2.1715    5.5494    1.8653 H   0  0  0  0  0  0
    2.0909    5.6922    0.1183 H   0  0  0  0  0  0
    0.4193   -0.0784    3.5029 H   0  0  0  0  0  0
   -0.5440   -0.8762    2.3026 H   0  0  0  0  0  0
    1.8546   -1.6562    2.0895 H   0  0  0  0  0  0
    2.3865    0.0161    1.9470 H   0  0  0  0  0  0
    1.3697   -2.8622   -0.1696 H   0  0  0  0  0  0
   -0.1221   -2.2368    0.5597 H   0  0  0  0  0  0
    3.4466   -1.2083   -0.0768 H   0  0  0  0  0  0
    2.5448   -0.8946   -1.5711 H   0  0  0  0  0  0
   -0.6321   -2.7641   -1.8165 H   0  0  0  0  0  0
    0.6849   -1.7562   -2.3808 H   0  0  0  0  0  0
   -0.7065   -1.0239   -1.5816 H   0  0  0  0  0  0
    3.9962    1.0849   -1.1658 H   0  0  0  0  0  0
    3.3408    1.3046    0.4441 H   0  0  0  0  0  0
    2.3134    1.5521   -0.9645 H   0  0  0  0  0  0
    0.7801    0.0106   -0.0489 H   0  0  0  0  0  0
  1 20  1  0  0  0
  2 14  2  0  0  0
  3 18  2  0  0  0
  4 12  1  0  0  0
  4 14  1  0  0  0
  4 30  1  0  0  0
  5 10  1  0  0  0
  5 16  1  0  0  0
  5 31  1  0  0  0
  6 18  1  0  0  0
  6 24  1  0  0  0
  6 32  1  0  0  0
  7 25  1  0  0  0
  7 26  1  0  0  0
  7 27  1  0  0  0
  7 57  1  0  0  0
  8  9  1  0  0  0
  8 14  1  0  0  0
  8 15  2  3  0  0
  9 12  2  0  0  0
  9 17  1  0  0  0
 10 13  2  0  0  0
 10 15  1  0  0  0
 11 13  1  0  0  0
 11 16  2  0  0  0
 11 18  1  0  0  0
 12 19  1  0  0  0
 13 22  1  0  0  0
 15 33  1  0  0  0
 16 23  1  0  0  0
 17 20  2  0  0  0
 17 34  1  0  0  0
 19 21  2  0  0  0
 19 35  1  0  0  0
 20 21  1  0  0  0
 21 36  1  0  0  0
 22 37  1  0  0  0
 22 38  1  0  0  0
 22 39  1  0  0  0
 23 40  1  0  0  0
 23 41  1  0  0  0
 23 42  1  0  0  0
 24 25  1  0  0  0
 24 43  1  0  0  0
 24 44  1  0  0  0
 25 45  1  0  0  0
 25 46  1  0  0  0
 26 28  1  0  0  0
 26 47  1  0  0  0
 26 48  1  0  0  0
 27 29  1  0  0  0
 27 49  1  0  0  0
 27 50  1  0  0  0
 28 51  1  0  0  0
 28 52  1  0  0  0
 28 53  1  0  0  0
 29 54  1  0  0  0
 29 55  1  0  0  0
 29 56  1  0  0  0
M  CHG  1   7   1
M  END
> <chembl_id>
CHEMBL1990885

> <chembl_pref_name>
None

> <s_m_source_file>
sdf/actives_sanitized.sdf

> <i_m_source_file_index>
60

> <i_lp_mmshare_version>
49012

> <i_m_ct_stereo_status>
1

> <i_f3d_flags>
0

> <s_epik_input>
RmMoW2NIXTEpW2NIXVtjSF1jKGMxMilbTkhdQyg9TylDXDI9W0NIXS9jM1tuSF1jKFtDSDNdKWMoYzNbQ0gzXSlDKD1PKVtOSF1bQ0gyXVtDSDJdTihbQ0gyXVtDSDNdKVtDSDJdW0NIM10=

> <s_epik_cmdline>
J2VwaWtfcHl0aG9uJywgJy1waHQnLCAnMC41JywgJy1waCcsICc3LjUnLCAnLW50JywgJy1tYScsICcyMDAnLCAnLWltYWUnLCAnPGluZmlsZS5tYWU+JywgJy1vbWFlJywgJzxvdXRmaWxlLm1hZT4n

> <r_epik_Ionization_Penalty>
  0.0180

> <r_epik_Ionization_Penalty_Charging>
  0.0180

> <r_epik_Ionization_Penalty_Neutral>
  0.0000

> <r_epik_State_Penalty>
  0.0143

> <r_epik_Charging_Adjusted_Penalty>
0.0322156623295471

> <i_epik_Tot_Q>
1

> <i_epik_Tot_abs_Q>
1

> <s_lp_Force_Field>
OPLS3e

> <r_lp_Energy>
31.296521

> <b_lp_Chiralities_Consistent>
1

> <s_lp_Variant>
sdf/actives_sanitized.sdf:60-1

$$$$
sdf/actives_sanitized.sdf:61
                    3D
 Schrodinger Suite 2020-1.
 28 30  0  0  1  0            999 V2000
    2.1059    1.2441    0.0014 O   0  0  0  0  0  0
    3.8158    3.2729    0.0058 O   0  5  0  0  0  0
    5.5276    1.9321    0.0129 O   0  0  0  0  0  0
   -6.8465   -0.6959    0.2184 O   0  0  0  0  0  0
   -2.0653   -0.6852   -0.0285 N   0  0  0  0  0  0
   -0.6823    1.1209    0.0145 N   0  0  0  0  0  0
    4.3214    2.1549    0.0089 N   0  3  0  0  0  0
   -5.8352   -2.6011   -0.3794 N   0  0  0  0  0  0
    0.0319    0.0102   -0.0071 C   0  0  0  0  0  0
    1.4876    0.0305    0.0001 C   0  0  0  0  0  0
   -1.9773    0.7146    0.0040 C   0  0  0  0  0  0
   -0.7700   -1.1328   -0.0357 C   0  0  0  0  0  0
    3.4495    1.0268    0.0077 C   0  0  0  0  0  0
   -3.2650   -1.3471   -0.0453 C   0  0  0  0  0  0
    2.4526   -0.9688    0.0068 C   0  0  0  0  0  0
   -4.4629   -0.6179   -0.0304 C   0  0  0  0  0  0
   -3.1693    1.4582    0.0216 C   0  0  0  0  0  0
    3.6976   -0.3391    0.0115 C   0  0  0  0  0  0
   -4.3913    0.7818    0.0062 C   0  0  0  0  0  0
   -5.8109   -1.3058   -0.0452 C   0  0  0  0  0  0
   -6.7145   -3.0962   -0.4141 H   0  0  0  0  0  0
   -4.9810   -3.0891   -0.6041 H   0  0  0  0  0  0
   -0.5141   -2.1820   -0.0583 H   0  0  0  0  0  0
   -3.2129   -2.4262   -0.0646 H   0  0  0  0  0  0
    2.2730   -2.0336    0.0081 H   0  0  0  0  0  0
   -3.1456    2.5377    0.0475 H   0  0  0  0  0  0
    4.6650   -0.8194    0.0168 H   0  0  0  0  0  0
   -5.2970    1.3722    0.0210 H   0  0  0  0  0  0
  1 10  1  0  0  0
  1 13  1  0  0  0
  2  7  1  0  0  0
  3  7  2  0  0  0
  4 20  2  0  0  0
  5 11  1  0  0  0
  5 12  1  0  0  0
  5 14  1  0  0  0
  6  9  1  0  0  0
  6 11  2  0  0  0
  7 13  1  0  0  0
  8 20  1  0  0  0
  8 21  1  0  0  0
  8 22  1  0  0  0
  9 10  1  0  0  0
  9 12  2  0  0  0
 10 15  2  0  0  0
 11 17  1  0  0  0
 12 23  1  0  0  0
 13 18  2  0  0  0
 14 16  2  0  0  0
 14 24  1  0  0  0
 15 18  1  0  0  0
 15 25  1  0  0  0
 16 19  1  0  0  0
 16 20  1  0  0  0
 17 19  2  0  0  0
 17 26  1  0  0  0
 18 27  1  0  0  0
 19 28  1  0  0  0
M  CHG  2   2  -1   7   1
M  END
> <chembl_id>
CHEMBL1973359

> <chembl_pref_name>
None

> <s_m_source_file>
sdf/actives_sanitized.sdf

> <i_m_source_file_index>
61

> <i_lp_mmshare_version>
49012

> <i_m_ct_stereo_status>
1

> <i_f3d_flags>
0

> <s_epik_input>
W08tXVtOK10oPU8pYyhbY0hdW2NIXTEpb2MxLWMoW2NIXTIpbmMobjIzKVtjSF1bY0hdYyhbY0hdMylDKD1PKVtOSDJd

> <s_epik_cmdline>
J2VwaWtfcHl0aG9uJywgJy1waHQnLCAnMC41JywgJy1waCcsICc3LjUnLCAnLW50JywgJy1tYScsICcyMDAnLCAnLWltYWUnLCAnPGluZmlsZS5tYWU+JywgJy1vbWFlJywgJzxvdXRmaWxlLm1hZT4n

> <r_lp_tautomer_probability>
1

> <r_epik_Ionization_Penalty>
  0.0054

> <r_epik_Ionization_Penalty_Charging>
  0.0054

> <r_epik_Ionization_Penalty_Neutral>
  0.0000

> <r_epik_State_Penalty>
 -0.0000

> <r_epik_Charging_Adjusted_Penalty>
0.00538061270721862

> <i_epik_Tot_Q>
0

> <i_epik_Tot_abs_Q>
2

> <s_lp_Force_Field>
OPLS3e

> <r_lp_Energy>
18.256423

> <b_lp_Chiralities_Consistent>
1

> <s_lp_Variant>
sdf/actives_sanitized.sdf:61-1

$$$$
sdf/actives_sanitized.sdf:62
                    3D
 Schrodinger Suite 2020-1.
 51 55  0  0  1  0            999 V2000
   -0.3297    0.1775    0.2500 C   0  0  0  0  0  0
    1.1352    0.0695    0.3757 C   0  0  0  0  0  0
   -0.9247    1.2607   -0.3359 C   0  0  0  0  0  0
   -1.1203   -0.9395    0.7860 C   0  0  0  0  0  0
   -2.4155    1.3557   -0.4645 C   0  0  0  0  0  0
    1.8988    1.0206    0.8666 N   0  0  0  0  0  0
   -2.4568   -0.8127    0.6258 N   0  0  0  0  0  0
    1.8725   -1.0341   -0.0029 N   0  0  0  0  0  0
   -3.1400    0.2610    0.0426 C   0  0  0  0  0  0
    3.1957   -0.7735    0.2647 C   0  0  0  0  0  0
    6.8100   -1.5727    0.3260 N   0  0  0  0  0  0
    3.1752    0.5278    0.8062 C   0  0  0  0  0  0
    4.3759   -1.5018    0.0969 C   0  0  0  0  0  0
    5.5873   -0.9054    0.5081 C   0  0  0  0  0  0
    8.0304   -3.4918    2.2360 N   0  3  0  0  0  0
   -3.1354    2.4274   -1.0353 C   0  0  0  0  0  0
   -0.6658   -1.9322    1.3534 O   0  0  0  0  0  0
   -0.2162    2.3132   -0.8700 N   0  0  0  0  0  0
    8.0115   -1.2479    1.1259 C   0  0  0  0  0  0
    6.8896   -3.0251    0.0587 C   0  0  0  0  0  0
    4.3764    1.1304    1.1867 C   0  0  0  0  0  0
    5.5575    0.4076    1.0197 C   0  0  0  0  0  0
    6.8193   -3.8634    1.3559 C   0  0  0  0  0  0
    8.0171   -1.9707    2.4925 C   0  0  0  0  0  0
   -2.5139    3.5183   -1.5414 F   0  0  0  0  0  0
   -4.5335    0.2289   -0.0174 C   0  0  0  0  0  0
    8.0013   -4.2700    3.5653 C   0  0  0  0  0  0
   -5.2277    1.2933   -0.5861 C   0  0  0  0  0  0
   -4.5297    2.3873   -1.0916 C   0  0  0  0  0  0
   -2.9963   -1.5818    0.9936 H   0  0  0  0  0  0
    1.4583   -1.8658   -0.3983 H   0  0  0  0  0  0
    4.3274   -2.4904   -0.3294 H   0  0  0  0  0  0
    0.7922    2.3403   -0.8184 H   0  0  0  0  0  0
   -0.6878    3.0933   -1.3052 H   0  0  0  0  0  0
    8.8973   -1.5473    0.5620 H   0  0  0  0  0  0
    8.1509   -0.1770    1.2533 H   0  0  0  0  0  0
    6.1433   -3.3496   -0.6640 H   0  0  0  0  0  0
    7.8329   -3.2353   -0.4493 H   0  0  0  0  0  0
    4.3947    2.1315    1.5922 H   0  0  0  0  0  0
    6.4621    0.9178    1.3070 H   0  0  0  0  0  0
    6.9027   -4.9317    1.1523 H   0  0  0  0  0  0
    5.9133   -3.6717    1.9348 H   0  0  0  0  0  0
    8.9191   -1.7473    3.0639 H   0  0  0  0  0  0
    7.1368   -1.7405    3.0964 H   0  0  0  0  0  0
   -5.0813   -0.6157    0.3754 H   0  0  0  0  0  0
    7.0830   -4.0082    4.0940 H   0  0  0  0  0  0
    8.8877   -3.9755    4.1285 H   0  0  0  0  0  0
    8.0337   -5.3315    3.3160 H   0  0  0  0  0  0
   -6.3066    1.2719   -0.6341 H   0  0  0  0  0  0
   -5.0736    3.2119   -1.5293 H   0  0  0  0  0  0
    8.8736   -3.7210    1.7285 H   0  0  0  0  0  0
  1  2  1  0  0  0
  1  3  2  0  0  0
  1  4  1  0  0  0
  2  6  2  0  0  0
  2  8  1  0  0  0
  3  5  1  0  0  0
  3 18  1  0  0  0
  4  7  1  0  0  0
  4 17  2  0  0  0
  5  9  2  0  0  0
  5 16  1  0  0  0
  6 12  1  0  0  0
  7  9  1  0  0  0
  7 30  1  0  0  0
  8 10  1  0  0  0
  8 31  1  0  0  0
  9 26  1  0  0  0
 10 13  2  0  0  0
 10 12  1  0  0  0
 11 14  1  0  0  0
 11 19  1  0  0  0
 11 20  1  0  0  0
 12 21  2  0  0  0
 13 14  1  0  0  0
 13 32  1  0  0  0
 14 22  2  0  0  0
 15 23  1  0  0  0
 15 27  1  0  0  0
 15 24  1  0  0  0
 15 51  1  0  0  0
 16 25  1  0  0  0
 16 29  2  0  0  0
 18 33  1  0  0  0
 18 34  1  0  0  0
 19 24  1  0  0  0
 19 35  1  0  0  0
 19 36  1  0  0  0
 20 23  1  0  0  0
 20 37  1  0  0  0
 20 38  1  0  0  0
 21 22  1  0  0  0
 21 39  1  0  0  0
 22 40  1  0  0  0
 23 41  1  0  0  0
 23 42  1  0  0  0
 24 43  1  0  0  0
 24 44  1  0  0  0
 26 28  2  0  0  0
 26 45  1  0  0  0
 27 46  1  0  0  0
 27 47  1  0  0  0
 27 48  1  0  0  0
 28 29  1  0  0  0
 28 49  1  0  0  0
 29 50  1  0  0  0
M  CHG  1  15   1
M  END
> <chembl_id>
CHEMBL522892

> <chembl_pref_name>
DOVITINIB

> <s_m_source_file>
sdf/actives_sanitized.sdf

> <i_m_source_file_index>
62

> <i_lp_mmshare_version>
49012

> <i_m_ct_stereo_status>
1

> <i_f3d_flags>
0

> <s_epik_input>
RmMxW2NIXVtjSF1bY0hdYyhjMTIpW25IXWMoPU8pYyhjMltOSDJdKS1jKFtuSF0zKW5jKGMzNClbY0hdW2NIXWMoW2NIXTQpTjVbQ0gyXVtDSDJdTihbQ0gzXSlbQ0gyXVtDSDJdNQ==

> <s_epik_cmdline>
J2VwaWtfcHl0aG9uJywgJy1waHQnLCAnMC41JywgJy1waCcsICc3LjUnLCAnLW50JywgJy1tYScsICcyMDAnLCAnLWltYWUnLCAnPGluZmlsZS5tYWU+JywgJy1vbWFlJywgJzxvdXRmaWxlLm1hZT4n

> <r_epik_Ionization_Penalty>
  0.1847

> <r_epik_Ionization_Penalty_Charging>
  0.1844

> <r_epik_Ionization_Penalty_Neutral>
  0.0003

> <r_epik_State_Penalty>
  0.1740

> <r_epik_Charging_Adjusted_Penalty>
0.35841467954784

> <i_epik_Tot_Q>
1

> <i_epik_Tot_abs_Q>
1

> <s_lp_Force_Field>
OPLS3e

> <r_lp_Energy>
54.877195

> <b_lp_Chiralities_Consistent>
1

> <s_lp_Variant>
sdf/actives_sanitized.sdf:62-1

$$$$
sdf/actives_sanitized.sdf:63
                    3D
 Schrodinger Suite 2020-1.
 50 53  0  0  1  0            999 V2000
    0.0852    5.3668   -0.4831 Cl  0  0  0  0  0  0
   -2.0352    1.4358   -0.1334 N   0  0  0  0  0  0
   -6.4339    2.9660    0.1808 N   0  0  0  0  0  0
   -0.0013    2.7150   -0.3051 N   0  0  0  0  0  0
   -7.4763    0.8775   -0.4543 N   0  0  0  0  0  0
    0.0162    0.3230   -0.1537 N   0  0  0  0  0  0
    5.4999   -0.9525    1.2678 N   0  3  0  0  0  0
   -4.2414    2.4511   -0.1163 C   0  0  0  0  0  0
   -5.0475    1.3007   -0.4589 C   0  0  0  0  0  0
   -2.7547    2.5905   -0.1692 C   0  0  0  0  0  0
   -6.4126    1.6622   -0.2545 C   0  0  0  0  0  0
   -5.1472    3.4363    0.2563 C   0  0  0  0  0  0
   -0.6834    1.5404   -0.1994 C   0  0  0  0  0  0
   -2.1317    3.8390   -0.2833 C   0  0  0  0  0  0
   -4.8032   -0.0074   -0.9204 C   0  0  0  0  0  0
   -0.7365    3.8564   -0.3467 C   0  0  0  0  0  0
    1.4661    0.2628    0.0335 C   0  0  2  0  0  0
   -5.8958   -0.8490   -1.1386 C   0  0  0  0  0  0
   -7.1853   -0.3743   -0.8965 C   0  0  0  0  0  0
    1.9886   -1.0720   -0.5295 C   0  0  0  0  0  0
    1.7925    0.3819    1.5364 C   0  0  0  0  0  0
    3.9450   -1.0115    1.1685 C   0  0  2  0  0  0
    3.5066   -1.2230   -0.3095 C   0  0  0  0  0  0
    3.3056    0.2595    1.7978 C   0  0  0  0  0  0
    6.1978   -2.2160    0.7148 C   0  0  0  0  0  0
    6.0293   -0.6592    2.6901 C   0  0  0  0  0  0
   -7.2392    3.5282    0.4157 H   0  0  0  0  0  0
   -0.5187   -0.4993    0.0858 H   0  0  0  0  0  0
   -4.9786    4.4527    0.5811 H   0  0  0  0  0  0
   -2.7015    4.7557   -0.3241 H   0  0  0  0  0  0
   -3.7992   -0.3601   -1.1037 H   0  0  0  0  0  0
    1.9321    1.0953   -0.4966 H   0  0  0  0  0  0
   -5.7437   -1.8584   -1.4914 H   0  0  0  0  0  0
   -8.0351   -1.0198   -1.0629 H   0  0  0  0  0  0
    1.4719   -1.9107   -0.0586 H   0  0  0  0  0  0
    1.7701   -1.1405   -1.5965 H   0  0  0  0  0  0
    1.4374    1.3377    1.9255 H   0  0  0  0  0  0
    1.2658   -0.3900    2.1007 H   0  0  0  0  0  0
    3.5809   -1.8682    1.7393 H   0  0  0  0  0  0
    3.8542   -2.1778   -0.7021 H   0  0  0  0  0  0
    4.0042   -0.4718   -0.9257 H   0  0  0  0  0  0
    3.7855    1.1379    1.3624 H   0  0  0  0  0  0
    3.5129    0.3286    2.8655 H   0  0  0  0  0  0
    5.7904   -3.0791    1.2434 H   0  0  0  0  0  0
    7.2695   -2.1129    0.8888 H   0  0  0  0  0  0
    6.0106   -2.2682   -0.3567 H   0  0  0  0  0  0
    5.6195   -1.4168    3.3597 H   0  0  0  0  0  0
    5.7161    0.3460    2.9695 H   0  0  0  0  0  0
    7.1187   -0.7010    2.6588 H   0  0  0  0  0  0
    5.7978   -0.1812    0.6866 H   0  0  0  0  0  0
  1 16  1  0  0  0
  2 10  2  0  0  0
  2 13  1  0  0  0
  3 11  1  0  0  0
  3 12  1  0  0  0
  3 27  1  0  0  0
  4 13  2  0  0  0
  4 16  1  0  0  0
  5 11  2  0  0  0
  5 19  1  0  0  0
  6 13  1  0  0  0
  6 17  1  0  0  0
  6 28  1  0  0  0
  7 22  1  0  0  0
  7 25  1  0  0  0
  7 26  1  0  0  0
  7 50  1  0  0  0
  8  9  1  0  0  0
  8 10  1  0  0  0
  8 12  2  0  0  0
  9 11  1  0  0  0
  9 15  2  0  0  0
 10 14  1  0  0  0
 12 29  1  0  0  0
 14 16  2  0  0  0
 14 30  1  0  0  0
 15 18  1  0  0  0
 15 31  1  0  0  0
 17 20  1  0  0  0
 17 21  1  0  0  0
 17 32  1  0  0  0
 18 19  2  0  0  0
 18 33  1  0  0  0
 19 34  1  0  0  0
 20 23  1  0  0  0
 20 35  1  0  0  0
 20 36  1  0  0  0
 21 24  1  0  0  0
 21 37  1  0  0  0
 21 38  1  0  0  0
 22 23  1  0  0  0
 22 24  1  0  0  0
 22 39  1  0  0  0
 23 40  1  0  0  0
 23 41  1  0  0  0
 24 42  1  0  0  0
 24 43  1  0  0  0
 25 44  1  0  0  0
 25 45  1  0  0  0
 25 46  1  0  0  0
 26 47  1  0  0  0
 26 48  1  0  0  0
 26 49  1  0  0  0
M  CHG  1   7   1
M  END
> <chembl_id>
CHEMBL1969151

> <chembl_pref_name>
None

> <s_m_source_file>
sdf/actives_sanitized.sdf

> <i_m_source_file_index>
63

> <i_lp_mmshare_version>
49012

> <i_m_ct_stereo_status>
1

> <i_f3d_flags>
0

> <s_epik_input>
W0NIMl0xW0NIMl1bQ0BIXShOKFtDSDNdKVtDSDNdKVtDSDJdW0NIMl1bQ0BIXTFbTkhdYyhuYyhDbClbY0hdMiluYzItYzNbY0hdW25IXWMoYzM0KW5bY0hdW2NIXVtjSF00

> <s_epik_cmdline>
J2VwaWtfcHl0aG9uJywgJy1waHQnLCAnMC41JywgJy1waCcsICc3LjUnLCAnLW50JywgJy1tYScsICcyMDAnLCAnLWltYWUnLCAnPGluZmlsZS5tYWU+JywgJy1vbWFlJywgJzxvdXRmaWxlLm1hZT4n

> <r_lp_tautomer_probability>
1

> <r_epik_Ionization_Penalty>
  0.0030

> <r_epik_Ionization_Penalty_Charging>
  0.0027

> <r_epik_Ionization_Penalty_Neutral>
  0.0003

> <r_epik_State_Penalty>
 -0.0000

> <r_epik_Charging_Adjusted_Penalty>
0.00269285580865689

> <i_epik_Tot_Q>
1

> <i_epik_Tot_abs_Q>
1

> <s_lp_Force_Field>
OPLS3e

> <r_lp_Energy>
56.384777

> <b_lp_Chiralities_Consistent>
1

> <s_lp_Variant>
sdf/actives_sanitized.sdf:63-1

$$$$
sdf/actives_sanitized.sdf:64
                    3D
 Schrodinger Suite 2020-1.
 32 35  0  0  1  0            999 V2000
    4.2730    0.1468    0.1399 O   0  0  0  0  0  0
    3.9633    1.5987    1.8803 N   0  0  0  0  0  0
   -2.2520    0.6607   -0.3240 N   0  0  0  0  0  0
    2.0874    0.8069    0.9553 C   0  0  0  0  0  0
    1.7367    1.7014    2.0622 C   0  0  0  0  0  0
    2.9259    2.1609    2.5862 C   0  0  0  0  0  0
   -0.0937    0.0365   -0.0438 C   0  0  0  0  0  0
    3.5407    0.7756    0.9042 C   0  0  0  0  0  0
   -0.9311   -1.1363   -0.0330 C   0  0  0  0  0  0
    1.3489    0.0835    0.0836 C   0  0  0  0  0  0
   -2.2851   -0.7098   -0.2045 C   0  0  0  0  0  0
   -0.9575    1.1005   -0.2374 C   0  0  0  0  0  0
    0.5268    2.1144    2.6302 C   0  0  0  0  0  0
    2.9615    3.0433    3.6655 C   0  0  0  0  0  0
   -0.6786   -2.5117    0.1093 C   0  0  0  0  0  0
   -3.3582   -1.6074   -0.2317 C   0  0  0  0  0  0
    0.5401    2.9988    3.7131 C   0  0  0  0  0  0
    1.7541    3.4638    4.2282 C   0  0  0  0  0  0
   -1.7470   -3.4065    0.0828 C   0  0  0  0  0  0
   -3.0552   -2.9608   -0.0836 C   0  0  0  0  0  0
    4.9385    1.7739    2.0730 H   0  0  0  0  0  0
   -3.0319    1.2876   -0.4613 H   0  0  0  0  0  0
    1.8447   -0.5406   -0.6482 H   0  0  0  0  0  0
   -0.7520    2.1581   -0.3182 H   0  0  0  0  0  0
   -0.4223    1.7590    2.2624 H   0  0  0  0  0  0
    3.8969    3.3989    4.0721 H   0  0  0  0  0  0
    0.3294   -2.8763    0.2418 H   0  0  0  0  0  0
   -4.3783   -1.2765   -0.3613 H   0  0  0  0  0  0
   -0.3908    3.3200    4.1567 H   0  0  0  0  0  0
    1.7586    4.1445    5.0667 H   0  0  0  0  0  0
   -1.5575   -4.4641    0.1948 H   0  0  0  0  0  0
   -3.8577   -3.6839   -0.0980 H   0  0  0  0  0  0
  1  8  2  0  0  0
  2  6  1  0  0  0
  2  8  1  0  0  0
  2 21  1  0  0  0
  3 11  1  0  0  0
  3 12  1  0  0  0
  3 22  1  0  0  0
  4  5  1  0  0  0
  4  8  1  0  0  0
  4 10  2  3  0  0
  5  6  2  0  0  0
  5 13  1  0  0  0
  6 14  1  0  0  0
  7  9  1  0  0  0
  7 10  1  0  0  0
  7 12  2  0  0  0
  9 11  2  0  0  0
  9 15  1  0  0  0
 10 23  1  0  0  0
 11 16  1  0  0  0
 12 24  1  0  0  0
 13 17  2  0  0  0
 13 25  1  0  0  0
 14 18  2  0  0  0
 14 26  1  0  0  0
 15 19  2  0  0  0
 15 27  1  0  0  0
 16 20  2  0  0  0
 16 28  1  0  0  0
 17 18  1  0  0  0
 17 29  1  0  0  0
 18 30  1  0  0  0
 19 20  1  0  0  0
 19 31  1  0  0  0
 20 32  1  0  0  0
M  END
> <chembl_id>
CHEMBL1986590

> <chembl_pref_name>
None

> <s_m_source_file>
sdf/actives_sanitized.sdf

> <i_m_source_file_index>
64

> <i_lp_mmshare_version>
49012

> <i_m_ct_stereo_status>
1

> <i_f3d_flags>
0

> <s_epik_input>
W2NIXTFbY0hdW2NIXVtjSF1jKGMxMilbTkhdQyg9TylDXDI9W0NIXVxjM1tjSF1bbkhdYyhjMzQpW2NIXVtjSF1bY0hdW2NIXTQ=

> <s_epik_cmdline>
J2VwaWtfcHl0aG9uJywgJy1waHQnLCAnMC41JywgJy1waCcsICc3LjUnLCAnLW50JywgJy1tYScsICcyMDAnLCAnLWltYWUnLCAnPGluZmlsZS5tYWU+JywgJy1vbWFlJywgJzxvdXRmaWxlLm1hZT4n

> <r_lp_tautomer_probability>
1

> <r_epik_Ionization_Penalty>
  0.0000

> <r_epik_Ionization_Penalty_Charging>
  0.0000

> <r_epik_Ionization_Penalty_Neutral>
  0.0000

> <r_epik_State_Penalty>
 -0.0000

> <r_epik_Charging_Adjusted_Penalty>
0

> <i_epik_Tot_Q>
0

> <i_epik_Tot_abs_Q>
0

> <s_lp_Force_Field>
OPLS3e

> <r_lp_Energy>
29.400794

> <b_lp_Chiralities_Consistent>
1

> <s_lp_Variant>
sdf/actives_sanitized.sdf:64-1

$$$$
sdf/actives_sanitized.sdf:65
                    3D
 Schrodinger Suite 2020-1.
 55 58  0  0  1  0            999 V2000
   -1.5959    3.7149    0.5479 N   0  0  0  0  0  0
   -0.3060    3.4018    0.2768 C   0  0  0  0  0  0
    0.1431    2.1504    0.0007 N   0  0  0  0  0  0
   -0.7677    1.1380   -0.0354 C   0  0  0  0  0  0
   -2.1372    1.3774    0.1973 C   0  0  0  0  0  0
   -2.4956    2.7005    0.4922 C   0  0  0  0  0  0
   -3.1923    0.2673    0.1569 C   0  0  0  0  0  0
   -4.4199    0.7257    0.4079 F   0  0  0  0  0  0
   -3.2038   -0.3006   -1.0494 F   0  0  0  0  0  0
   -2.9062   -0.6632    1.0683 F   0  0  0  0  0  0
    0.6005    4.4710    0.3280 N   0  0  0  0  0  0
    1.9116    4.6204   -0.1574 C   0  0  0  0  0  0
    2.6831    5.6718    0.3549 C   0  0  0  0  0  0
    3.7468    4.0176   -1.6398 C   0  0  0  0  0  0
    2.4537    3.7985   -1.1614 C   0  0  0  0  0  0
    4.4989    5.0553   -1.0958 C   0  0  0  0  0  0
    3.9816    5.8751   -0.1137 C   0  0  0  0  0  0
    5.0265    6.8822    0.2517 C   0  0  0  0  0  0
    6.1980    6.5086   -0.6607 C   0  0  0  0  0  0
    5.7943    5.4509   -1.3906 N   0  0  0  0  0  0
    7.2873    7.0759   -0.7050 O   0  0  0  0  0  0
   -0.3079   -0.1691   -0.2851 N   0  0  0  0  0  0
    1.1134   -0.5227   -0.2688 C   0  0  0  0  0  0
    1.7280   -0.5123    1.1418 C   0  0  0  0  0  0
    0.9464   -0.8637    2.2560 C   0  0  0  0  0  0
    1.4848   -0.8170    3.5396 C   0  0  0  0  0  0
    2.8103   -0.4227    3.6840 C   0  0  0  0  0  0
    3.5955   -0.0999    2.6292 N   0  0  0  0  0  0
    3.0773   -0.1536    1.3704 C   0  0  0  0  0  0
    3.9525    0.1631    0.3087 N   0  0  0  0  0  0
    5.2051    1.4361    0.4761 S   0  0  0  0  0  0
    4.3462   -0.9880   -0.5008 C   0  0  0  0  0  0
    6.5617    0.6092    1.5013 C   0  0  0  0  0  0
    5.7428    1.6928   -0.8646 O   0  0  0  0  0  0
    4.6166    2.5256    1.2631 O   0  0  0  0  0  0
   -3.5200    2.9756    0.6968 H   0  0  0  0  0  0
    0.2102    5.3148    0.7213 H   0  0  0  0  0  0
    2.2763    6.3179    1.1196 H   0  0  0  0  0  0
    4.1470    3.3798   -2.4141 H   0  0  0  0  0  0
    1.8801    2.9993   -1.6039 H   0  0  0  0  0  0
    4.7040    7.9030    0.0447 H   0  0  0  0  0  0
    5.3278    6.7992    1.2962 H   0  0  0  0  0  0
    6.3797    4.9957   -2.0756 H   0  0  0  0  0  0
   -0.9824   -0.9108   -0.4065 H   0  0  0  0  0  0
    1.2210   -1.5211   -0.6927 H   0  0  0  0  0  0
    1.6540    0.1616   -0.9241 H   0  0  0  0  0  0
   -0.0845   -1.1634    2.1365 H   0  0  0  0  0  0
    0.8861   -1.0752    4.4008 H   0  0  0  0  0  0
    3.2666   -0.3659    4.6612 H   0  0  0  0  0  0
    4.9816   -1.6593    0.0779 H   0  0  0  0  0  0
    4.9041   -0.6729   -1.3826 H   0  0  0  0  0  0
    3.4888   -1.5610   -0.8503 H   0  0  0  0  0  0
    7.4050    1.2949    1.5768 H   0  0  0  0  0  0
    6.8766   -0.3075    1.0045 H   0  0  0  0  0  0
    6.1864    0.3851    2.4980 H   0  0  0  0  0  0
  1  2  2  0  0  0
  1  6  1  0  0  0
  2  3  1  0  0  0
  2 11  1  0  0  0
  3  4  2  0  0  0
  4  5  1  0  0  0
  4 22  1  0  0  0
  5  6  2  0  0  0
  5  7  1  0  0  0
  6 36  1  0  0  0
  7  8  1  0  0  0
  7  9  1  0  0  0
  7 10  1  0  0  0
 11 12  1  0  0  0
 11 37  1  0  0  0
 12 13  2  0  0  0
 12 15  1  0  0  0
 13 17  1  0  0  0
 13 38  1  0  0  0
 14 16  1  0  0  0
 14 15  2  0  0  0
 14 39  1  0  0  0
 15 40  1  0  0  0
 16 17  2  0  0  0
 16 20  1  0  0  0
 17 18  1  0  0  0
 18 19  1  0  0  0
 18 41  1  0  0  0
 18 42  1  0  0  0
 19 20  1  0  0  0
 19 21  2  0  0  0
 20 43  1  0  0  0
 22 23  1  0  0  0
 22 44  1  0  0  0
 23 24  1  0  0  0
 23 45  1  0  0  0
 23 46  1  0  0  0
 24 25  2  0  0  0
 24 29  1  0  0  0
 25 26  1  0  0  0
 25 47  1  0  0  0
 26 27  2  0  0  0
 26 48  1  0  0  0
 27 28  1  0  0  0
 27 49  1  0  0  0
 28 29  2  0  0  0
 29 30  1  0  0  0
 30 31  1  0  0  0
 30 32  1  0  0  0
 31 33  1  0  0  0
 31 34  2  0  0  0
 31 35  2  0  0  0
 32 50  1  0  0  0
 32 51  1  0  0  0
 32 52  1  0  0  0
 33 53  1  0  0  0
 33 54  1  0  0  0
 33 55  1  0  0  0
M  END
> <chembl_id>
CHEMBL1084546

> <chembl_pref_name>
PF-00562271

> <s_m_source_file>
sdf/actives_sanitized.sdf

> <i_m_source_file_index>
65

> <i_lp_mmshare_version>
49012

> <i_m_ct_stereo_status>
1

> <i_f3d_flags>
0

> <s_epik_input>
W05IXTFDKD1PKVtDSDJdYyhjMTIpW2NIXWMoW2NIXVtjSF0yKVtOSF1jM25bY0hdYyhDKEYpKEYpRiljKG4zKVtOSF1bQ0gyXWM0W2NIXVtjSF1bY0hdbmM0TihbQ0gzXSlTKD1PKSg9TylbQ0gzXQ==

> <s_epik_cmdline>
J2VwaWtfcHl0aG9uJywgJy1waHQnLCAnMC41JywgJy1waCcsICc3LjUnLCAnLW50JywgJy1tYScsICcyMDAnLCAnLWltYWUnLCAnPGluZmlsZS5tYWU+JywgJy1vbWFlJywgJzxvdXRmaWxlLm1hZT4n

> <r_lp_tautomer_probability>
1

> <r_epik_Ionization_Penalty>
  0.0002

> <r_epik_Ionization_Penalty_Charging>
  0.0000

> <r_epik_Ionization_Penalty_Neutral>
  0.0002

> <r_epik_State_Penalty>
 -0.0000

> <r_epik_Charging_Adjusted_Penalty>
0

> <i_epik_Tot_Q>
0

> <i_epik_Tot_abs_Q>
0

> <s_lp_Force_Field>
OPLS3e

> <r_lp_Energy>
33.883532

> <b_lp_Chiralities_Consistent>
1

> <s_lp_Variant>
sdf/actives_sanitized.sdf:65-1

$$$$
sdf/actives_sanitized.sdf:66
                    3D
 Schrodinger Suite 2020-1.
 37 41  0  0  1  0            999 V2000
    0.0011   -0.0010    0.0039 C   0  0  0  0  0  0
   -0.6858    1.2101    0.0062 C   0  0  0  0  0  0
   -2.0789    1.2646    0.0099 C   0  0  0  0  0  0
   -0.6853   -1.2146    0.0060 C   0  0  0  0  0  0
   -2.0925   -1.2078    0.0085 C   0  0  0  0  0  0
   -2.7659    0.0454    0.0101 C   0  0  0  0  0  0
   -4.1196   -0.2140    0.0105 N   0  0  0  0  0  0
   -3.0822   -2.2230    0.0073 C   0  0  0  0  0  0
   -4.3494   -1.5735    0.0069 C   0  0  0  0  0  0
   -5.5586   -2.2810    0.0021 C   0  0  0  0  0  0
   -5.5034   -3.6797   -0.0073 C   0  0  0  0  0  0
   -3.0706   -3.6341    0.0047 C   0  0  0  0  0  0
   -4.2595   -4.3255   -0.0040 C   0  0  0  0  0  0
   -3.9246   -5.7791   -0.0109 C   0  0  0  0  0  0
   -2.5793   -5.8372   -0.0025 N   0  0  0  0  0  0
   -1.9677   -4.6368    0.0082 C   0  0  0  0  0  0
   -4.6869   -6.7440   -0.0214 O   0  0  0  0  0  0
   -0.7528   -4.4574    0.0186 O   0  0  0  0  0  0
    1.3711    0.0009   -0.0009 O   0  0  0  0  0  0
   -6.7761   -4.4449   -0.0239 C   0  0  0  0  0  0
   -7.3903   -4.8293   -1.2284 C   0  0  0  0  0  0
   -8.5844   -5.5532   -1.2069 C   0  0  0  0  0  0
   -9.1738   -5.9017    0.0072 C   0  0  0  0  0  0
   -8.5707   -5.5256    1.2054 C   0  0  0  0  0  0
   -7.3798   -4.8005    1.1881 C   0  0  0  0  0  0
   -6.6922   -4.4275   -2.7608 Cl  0  0  0  0  0  0
   -0.1285    2.1359    0.0044 H   0  0  0  0  0  0
   -2.5960    2.2132    0.0115 H   0  0  0  0  0  0
   -0.1269   -2.1351    0.0037 H   0  0  0  0  0  0
   -4.8412    0.4925    0.0104 H   0  0  0  0  0  0
   -6.5090   -1.7669   -0.0001 H   0  0  0  0  0  0
   -2.0710   -6.7093   -0.0045 H   0  0  0  0  0  0
    1.7486   -0.8816   -0.0041 H   0  0  0  0  0  0
   -9.0560   -5.8488   -2.1327 H   0  0  0  0  0  0
  -10.0960   -6.4638    0.0190 H   0  0  0  0  0  0
   -9.0240   -5.7974    2.1472 H   0  0  0  0  0  0
   -6.9202   -4.5179    2.1243 H   0  0  0  0  0  0
  1  2  2  0  0  0
  1 19  1  0  0  0
  1  4  1  0  0  0
  2  3  1  0  0  0
  2 27  1  0  0  0
  3  6  2  0  0  0
  3 28  1  0  0  0
  4  5  2  0  0  0
  4 29  1  0  0  0
  5  8  1  0  0  0
  5  6  1  0  0  0
  6  7  1  0  0  0
  7  9  1  0  0  0
  7 30  1  0  0  0
  8  9  2  0  0  0
  8 12  1  0  0  0
  9 10  1  0  0  0
 10 11  2  0  0  0
 10 31  1  0  0  0
 11 13  1  0  0  0
 11 20  1  0  0  0
 12 13  2  0  0  0
 12 16  1  0  0  0
 13 14  1  0  0  0
 14 15  1  0  0  0
 14 17  2  0  0  0
 15 16  1  0  0  0
 15 32  1  0  0  0
 16 18  2  0  0  0
 19 33  1  0  0  0
 20 21  2  0  0  0
 20 25  1  0  0  0
 21 22  1  0  0  0
 21 26  1  0  0  0
 22 23  2  0  0  0
 22 34  1  0  0  0
 23 24  1  0  0  0
 23 35  1  0  0  0
 24 25  2  0  0  0
 24 36  1  0  0  0
 25 37  1  0  0  0
M  END
> <chembl_id>
CHEMBL379975

> <chembl_pref_name>
None

> <s_m_source_file>
sdf/actives_sanitized.sdf

> <i_m_source_file_index>
66

> <i_lp_mmshare_version>
49012

> <i_m_ct_stereo_status>
1

> <i_f3d_flags>
0

> <s_epik_input>
W2NIXTFjKFtPSF0pW2NIXVtjSF1jKGMxMilbbkhdYzNjMmM0YyhDKD1PKVtOSF1DND1PKWMoW2NIXTMpLWM1YyhDbClbY0hdW2NIXVtjSF1bY0hdNQ==

> <s_epik_cmdline>
J2VwaWtfcHl0aG9uJywgJy1waHQnLCAnMC41JywgJy1waCcsICc3LjUnLCAnLW50JywgJy1tYScsICcyMDAnLCAnLWltYWUnLCAnPGluZmlsZS5tYWU+JywgJy1vbWFlJywgJzxvdXRmaWxlLm1hZT4n

> <r_lp_tautomer_probability>
1

> <r_epik_Ionization_Penalty>
  0.0946

> <r_epik_Ionization_Penalty_Charging>
  0.0000

> <r_epik_Ionization_Penalty_Neutral>
  0.0946

> <r_epik_State_Penalty>
 -0.0000

> <r_epik_Charging_Adjusted_Penalty>
0

> <i_epik_Tot_Q>
0

> <i_epik_Tot_abs_Q>
0

> <s_lp_Force_Field>
OPLS3e

> <r_lp_Energy>
29.338546

> <b_lp_Chiralities_Consistent>
1

> <s_lp_Variant>
sdf/actives_sanitized.sdf:66-1

$$$$
sdf/actives_sanitized.sdf:67
                    3D
 Schrodinger Suite 2020-1.
 29 31  0  0  1  0            999 V2000
    0.6794    3.3640   -0.5364 Cl  0  0  0  0  0  0
    6.4222   -0.8615   -0.6975 O   0  0  0  0  0  0
   -2.1046   -0.7330    0.2977 N   0  0  0  0  0  0
   -3.3695    1.3114    0.0848 N   0  0  0  0  0  0
    6.4695    1.0734    0.4244 N   0  0  0  0  0  0
   -0.9077    1.1627   -0.0329 C   0  0  0  0  0  0
    0.0110    0.0502    0.0939 C   0  0  0  0  0  0
   -2.2233    0.6252    0.1201 C   0  0  0  0  0  0
    1.4987    0.0560    0.0509 C   0  0  0  0  0  0
   -0.8221    2.5546   -0.2666 C   0  0  0  0  0  0
   -0.7780   -1.0763    0.2703 C   0  0  0  0  0  0
   -2.0074    3.2925   -0.3059 C   0  0  0  0  0  0
    2.1683   -0.8025   -0.8217 C   0  0  0  0  0  0
    2.2288    0.9094    0.8784 C   0  0  0  0  0  0
   -3.2287    2.6452   -0.1255 C   0  0  0  0  0  0
    4.3032    0.0629   -0.0570 C   0  0  0  0  0  0
    3.5594   -0.7987   -0.8754 C   0  0  0  0  0  0
    3.6199    0.9149    0.8257 C   0  0  0  0  0  0
    5.8153    0.0501   -0.1364 C   0  0  0  0  0  0
   -2.8443   -1.4080    0.4291 H   0  0  0  0  0  0
    7.4779    1.1067    0.3930 H   0  0  0  0  0  0
    5.9599    1.8216    0.8708 H   0  0  0  0  0  0
   -0.4970   -2.1115    0.3996 H   0  0  0  0  0  0
   -1.9821    4.3581   -0.4828 H   0  0  0  0  0  0
    1.6137   -1.4695   -1.4659 H   0  0  0  0  0  0
    1.7198    1.5690    1.5663 H   0  0  0  0  0  0
   -4.1470    3.2128   -0.1590 H   0  0  0  0  0  0
    4.0505   -1.4704   -1.5653 H   0  0  0  0  0  0
    4.1521    1.5872    1.4829 H   0  0  0  0  0  0
  1 10  1  0  0  0
  2 19  2  0  0  0
  3  8  1  0  0  0
  3 11  1  0  0  0
  3 20  1  0  0  0
  4  8  2  0  0  0
  4 15  1  0  0  0
  5 19  1  0  0  0
  5 21  1  0  0  0
  5 22  1  0  0  0
  6  7  1  0  0  0
  6  8  1  0  0  0
  6 10  2  0  0  0
  7  9  1  0  0  0
  7 11  2  0  0  0
  9 13  2  0  0  0
  9 14  1  0  0  0
 10 12  1  0  0  0
 11 23  1  0  0  0
 12 15  2  0  0  0
 12 24  1  0  0  0
 13 17  1  0  0  0
 13 25  1  0  0  0
 14 18  2  0  0  0
 14 26  1  0  0  0
 15 27  1  0  0  0
 16 17  2  0  0  0
 16 18  1  0  0  0
 16 19  1  0  0  0
 17 28  1  0  0  0
 18 29  1  0  0  0
M  END
> <chembl_id>
CHEMBL1982711

> <chembl_pref_name>
None

> <s_m_source_file>
sdf/actives_sanitized.sdf

> <i_m_source_file_index>
67

> <i_lp_mmshare_version>
49012

> <i_m_ct_stereo_status>
1

> <i_f3d_flags>
0

> <s_epik_input>
Q2xjMVtjSF1bY0hdbmMoYzEyKVtuSF1bY0hdYzItYzNbY0hdW2NIXWMoW2NIXVtjSF0zKUMoPU8pW05IMl0=

> <s_epik_cmdline>
J2VwaWtfcHl0aG9uJywgJy1waHQnLCAnMC41JywgJy1waCcsICc3LjUnLCAnLW50JywgJy1tYScsICcyMDAnLCAnLWltYWUnLCAnPGluZmlsZS5tYWU+JywgJy1vbWFlJywgJzxvdXRmaWxlLm1hZT4n

> <r_lp_tautomer_probability>
1

> <r_epik_Ionization_Penalty>
  0.0001

> <r_epik_Ionization_Penalty_Charging>
  0.0000

> <r_epik_Ionization_Penalty_Neutral>
  0.0001

> <r_epik_State_Penalty>
 -0.0000

> <r_epik_Charging_Adjusted_Penalty>
0

> <i_epik_Tot_Q>
0

> <i_epik_Tot_abs_Q>
0

> <s_lp_Force_Field>
OPLS3e

> <r_lp_Energy>
24.722488

> <b_lp_Chiralities_Consistent>
1

> <s_lp_Variant>
sdf/actives_sanitized.sdf:67-1

$$$$
sdf/actives_sanitized.sdf:68
                    3D
 Schrodinger Suite 2020-1.
 33 35  0  0  1  0            999 V2000
   -6.1457   -4.2328   -1.8549 Br  0  0  0  0  0  0
    2.2690    1.3009    0.8269 S   0  0  0  0  0  0
   -2.7943    2.1654   -1.2033 O   0  0  0  0  0  0
   -1.6710   -3.0023    2.0504 O   0  0  0  0  0  0
   -2.8199   -0.0193   -0.6026 N   0  5  0  0  0  0
    0.4316    3.4483   -1.2843 N   0  0  0  0  0  0
   -0.0192    0.1287   -0.3081 C   0  0  0  0  0  0
   -2.0730   -1.1429   -0.2097 C   0  0  0  0  0  0
   -0.7507    1.2171   -0.7025 C   0  0  0  0  0  0
   -2.9027   -2.3641    0.0450 C   0  0  0  0  0  0
    1.4312    0.1152   -0.1320 C   0  0  0  0  0  0
   -0.7286   -1.1233   -0.0516 C   0  0  0  0  0  0
   -2.2164    1.1370   -0.8513 C   0  0  0  0  0  0
   -2.6503   -3.2460    1.1204 C   0  0  0  0  0  0
   -3.9593   -2.6875   -0.8275 C   0  0  0  0  0  0
    2.3295   -0.8158   -0.6363 C   0  0  0  0  0  0
   -0.0907    2.4508   -1.0124 C   0  0  0  0  0  0
    3.8188    0.5638    0.5337 C   0  0  0  0  0  0
   -4.7316   -3.8334   -0.6450 C   0  0  0  0  0  0
    3.6534   -0.5597   -0.2711 C   0  0  0  0  0  0
   -3.4270   -4.3933    1.2989 C   0  0  0  0  0  0
   -4.4642   -4.6880    0.4194 C   0  0  0  0  0  0
    5.0820    1.1456    1.1203 C   0  0  0  0  0  0
   -1.6314   -3.6730    2.7355 H   0  0  0  0  0  0
   -0.1842   -2.0084    0.2434 H   0  0  0  0  0  0
   -4.1811   -2.0502   -1.6716 H   0  0  0  0  0  0
    2.0359   -1.6523   -1.2534 H   0  0  0  0  0  0
    4.4776   -1.1832   -0.5846 H   0  0  0  0  0  0
   -3.2325   -5.0590    2.1274 H   0  0  0  0  0  0
   -5.0602   -5.5768    0.5660 H   0  0  0  0  0  0
    5.9636    0.5628    0.8522 H   0  0  0  0  0  0
    5.0393    1.1797    2.2091 H   0  0  0  0  0  0
    5.2529    2.1644    0.7719 H   0  0  0  0  0  0
  1 19  1  0  0  0
  2 11  1  0  0  0
  2 18  1  0  0  0
  3 13  2  0  0  0
  4 14  1  0  0  0
  4 24  1  0  0  0
  5  8  1  0  0  0
  5 13  1  0  0  0
  6 17  3  0  0  0
  7  9  2  0  0  0
  7 11  1  0  0  0
  7 12  1  0  0  0
  8 10  1  0  0  0
  8 12  2  0  0  0
  9 13  1  0  0  0
  9 17  1  0  0  0
 10 14  2  0  0  0
 10 15  1  0  0  0
 11 16  2  0  0  0
 12 25  1  0  0  0
 14 21  1  0  0  0
 15 19  2  0  0  0
 15 26  1  0  0  0
 16 20  1  0  0  0
 16 27  1  0  0  0
 18 20  2  0  0  0
 18 23  1  0  0  0
 19 22  1  0  0  0
 20 28  1  0  0  0
 21 22  2  0  0  0
 21 29  1  0  0  0
 22 30  1  0  0  0
 23 31  1  0  0  0
 23 32  1  0  0  0
 23 33  1  0  0  0
M  CHG  1   5  -1
M  END
> <chembl_id>
CHEMBL1997193

> <chembl_pref_name>
None

> <s_m_source_file>
sdf/actives_sanitized.sdf

> <i_m_source_file_index>
68

> <i_lp_mmshare_version>
49012

> <i_m_ct_stereo_status>
1

> <i_f3d_flags>
0

> <s_epik_input>
QnJjKFtjSF0xKVtjSF1bY0hdYyhbT0hdKWMxLWMoW2NIXTIpW25IXWMoPU8pYyhDI04pYzItYzNzYyhbQ0gzXSlbY0hdW2NIXTM=

> <s_epik_cmdline>
J2VwaWtfcHl0aG9uJywgJy1waHQnLCAnMC41JywgJy1waCcsICc3LjUnLCAnLW50JywgJy1tYScsICcyMDAnLCAnLWltYWUnLCAnPGluZmlsZS5tYWU+JywgJy1vbWFlJywgJzxvdXRmaWxlLm1hZT4n

> <r_lp_tautomer_probability>
0.999999999997365

> <r_epik_Ionization_Penalty>
  0.2647

> <r_epik_Ionization_Penalty_Charging>
  0.0001

> <r_epik_Ionization_Penalty_Neutral>
  0.2646

> <r_epik_State_Penalty>
  0.2113

> <r_epik_Charging_Adjusted_Penalty>
0.211390070978709

> <i_epik_Tot_Q>
-1

> <i_epik_Tot_abs_Q>
1

> <s_lp_Force_Field>
OPLS3e

> <r_lp_Energy>
50.493337

> <b_lp_Chiralities_Consistent>
1

> <s_lp_Variant>
sdf/actives_sanitized.sdf:68-1

$$$$
sdf/actives_sanitized.sdf:69
                    3D
 Schrodinger Suite 2020-1.
 56 59  0  0  1  0            999 V2000
   -2.6270   -0.6843    0.4032 S   0  0  0  0  0  0
    6.0574   -1.4906   -2.1805 O   0  0  0  0  0  0
   -1.4512    3.5694   -0.6449 N   0  0  0  0  0  0
    0.7707    2.9281   -0.8241 N   0  0  0  0  0  0
    5.5463   -0.3976   -0.2317 N   0  0  0  0  0  0
    7.6635   -0.8090   -0.6990 N   0  0  0  0  0  0
   -7.5150   -0.0800    0.5995 N   0  3  0  0  0  0
   -0.9090    1.2419   -0.1887 C   0  0  0  0  0  0
   -2.3105    1.0059    0.0222 C   0  0  0  0  0  0
   -0.1232    0.0469   -0.0035 C   0  0  0  0  0  0
   -0.5467    2.5678   -0.5403 C   0  0  0  0  0  0
   -3.2525    2.0509   -0.0879 C   0  0  0  0  0  0
    1.3581   -0.0788   -0.0926 C   0  0  0  0  0  0
   -0.9302   -1.0353    0.2869 C   0  0  0  0  0  0
   -2.7568    3.3095   -0.4190 C   0  0  0  0  0  0
    2.1763    0.6279    0.7906 C   0  0  0  0  0  0
    1.9297   -0.9280   -1.0417 C   0  0  0  0  0  0
   -4.6816    1.8604    0.1237 C   0  0  0  0  0  0
    4.1391   -0.3353   -0.2448 C   0  0  0  0  0  0
    3.5598    0.4999    0.7133 C   0  0  0  0  0  0
    3.3136   -1.0587   -1.1211 C   0  0  0  0  0  0
   -5.8763    1.6773    0.3005 C   0  0  0  0  0  0
    6.3917   -0.9509   -1.1254 C   0  0  0  0  0  0
    8.8502   -1.2870   -1.2856 C   0  0  0  0  0  0
   -7.3105    1.4382    0.5156 C   0  0  0  0  0  0
    8.9090   -2.3441   -2.2104 C   0  0  0  0  0  0
   10.0390   -0.6758   -0.8750 C   0  0  0  0  0  0
   10.1376   -2.7658   -2.7271 C   0  0  0  0  0  0
   11.2647   -1.0917   -1.3940 C   0  0  0  0  0  0
   11.3145   -2.1317   -2.3209 C   0  0  0  0  0  0
   10.1843   -3.9039   -3.7303 C   0  0  0  0  0  0
   -8.9797   -0.4784    0.8278 C   0  0  0  0  0  0
    1.4990    2.2290   -0.7836 H   0  0  0  0  0  0
    0.9766    3.8812   -1.0878 H   0  0  0  0  0  0
    5.9734    0.0679    0.5555 H   0  0  0  0  0  0
    7.8024   -0.2427    0.1248 H   0  0  0  0  0  0
   -7.2005   -0.5006   -0.2638 H   0  0  0  0  0  0
   -0.5987   -2.0483    0.4645 H   0  0  0  0  0  0
   -3.4184    4.1585   -0.5205 H   0  0  0  0  0  0
    1.7418    1.2762    1.5381 H   0  0  0  0  0  0
    1.3031   -1.4892   -1.7202 H   0  0  0  0  0  0
    4.1776    1.0561    1.4042 H   0  0  0  0  0  0
    3.7103   -1.7347   -1.8611 H   0  0  0  0  0  0
   -7.9090    1.7950   -0.3238 H   0  0  0  0  0  0
   -7.6516    1.8595    1.4623 H   0  0  0  0  0  0
    8.0171   -2.8626   -2.5269 H   0  0  0  0  0  0
   10.0208    0.1307   -0.1554 H   0  0  0  0  0  0
   12.1770   -0.6082   -1.0766 H   0  0  0  0  0  0
   12.2697   -2.4466   -2.7154 H   0  0  0  0  0  0
   11.1588   -3.9844   -4.2136 H   0  0  0  0  0  0
    9.4435   -3.7432   -4.5145 H   0  0  0  0  0  0
    9.9485   -4.8497   -3.2417 H   0  0  0  0  0  0
   -8.9980   -1.5682    0.8627 H   0  0  0  0  0  0
   -9.5577   -0.0936   -0.0134 H   0  0  0  0  0  0
   -9.2918   -0.0408    1.7771 H   0  0  0  0  0  0
   -6.9624   -0.4432    1.3636 H   0  0  0  0  0  0
  1  9  1  0  0  0
  1 14  1  0  0  0
  2 23  2  0  0  0
  3 11  2  0  0  0
  3 15  1  0  0  0
  4 11  1  0  0  0
  4 33  1  0  0  0
  4 34  1  0  0  0
  5 19  1  0  0  0
  5 23  1  0  0  0
  5 35  1  0  0  0
  6 23  1  0  0  0
  6 24  1  0  0  0
  6 36  1  0  0  0
  7 25  1  0  0  0
  7 32  1  0  0  0
  7 37  1  0  0  0
  7 56  1  0  0  0
  8  9  2  0  0  0
  8 10  1  0  0  0
  8 11  1  0  0  0
  9 12  1  0  0  0
 10 13  1  0  0  0
 10 14  2  0  0  0
 12 15  2  0  0  0
 12 18  1  0  0  0
 13 16  2  0  0  0
 13 17  1  0  0  0
 14 38  1  0  0  0
 15 39  1  0  0  0
 16 20  1  0  0  0
 16 40  1  0  0  0
 17 21  2  0  0  0
 17 41  1  0  0  0
 18 22  3  0  0  0
 19 20  2  0  0  0
 19 21  1  0  0  0
 20 42  1  0  0  0
 21 43  1  0  0  0
 22 25  1  0  0  0
 24 26  2  0  0  0
 24 27  1  0  0  0
 25 44  1  0  0  0
 25 45  1  0  0  0
 26 28  1  0  0  0
 26 46  1  0  0  0
 27 29  2  0  0  0
 27 47  1  0  0  0
 28 30  2  0  0  0
 28 31  1  0  0  0
 29 30  1  0  0  0
 29 48  1  0  0  0
 30 49  1  0  0  0
 31 50  1  0  0  0
 31 51  1  0  0  0
 31 52  1  0  0  0
 32 53  1  0  0  0
 32 54  1  0  0  0
 32 55  1  0  0  0
M  CHG  1   7   1
M  END
> <chembl_id>
CHEMBL1964441

> <chembl_pref_name>
None

> <s_m_source_file>
sdf/actives_sanitized.sdf

> <i_m_source_file_index>
69

> <i_lp_mmshare_version>
49012

> <i_m_ct_stereo_status>
1

> <i_f3d_flags>
0

> <s_epik_input>
W0NIM11bTkhdW0NIMl1DI0NjKFtjSF1uYzFbTkgyXSljKGMxMilzW2NIXWMyLWMzW2NIXVtjSF1jKFtjSF1bY0hdMylbTkhdQyg9TylbTkhdYzRbY0hdYyhbQ0gzXSlbY0hdW2NIXVtjSF00

> <s_epik_cmdline>
J2VwaWtfcHl0aG9uJywgJy1waHQnLCAnMC41JywgJy1waCcsICc3LjUnLCAnLW50JywgJy1tYScsICcyMDAnLCAnLWltYWUnLCAnPGluZmlsZS5tYWU+JywgJy1vbWFlJywgJzxvdXRmaWxlLm1hZT4n

> <r_epik_Ionization_Penalty>
  0.2987

> <r_epik_Ionization_Penalty_Charging>
  0.2496

> <r_epik_Ionization_Penalty_Neutral>
  0.0491

> <r_epik_State_Penalty>
  0.2784

> <r_epik_Charging_Adjusted_Penalty>
0.528001580718168

> <i_epik_Tot_Q>
1

> <i_epik_Tot_abs_Q>
1

> <s_lp_Force_Field>
OPLS3e

> <r_lp_Energy>
55.257582

> <b_lp_Chiralities_Consistent>
1

> <s_lp_Variant>
sdf/actives_sanitized.sdf:69-1

$$$$
sdf/actives_sanitized.sdf:70
                    3D
 Schrodinger Suite 2020-1.
 62 69  0  0  1  0            999 V2000
   -0.5196    1.2641   -0.7135 C   0  0  0  0  0  0
    0.0429    0.1975    0.2397 N   0  3  0  0  0  0
    1.5770    0.0376    0.2291 C   0  0  2  0  0  0
    1.9807   -0.6460   -1.1613 C   0  0  0  0  0  0
    2.4557   -1.9923   -0.7368 C   0  0  1  0  0  0
    1.4278   -2.5483    0.0223 O   0  0  0  0  0  0
    1.6799   -2.3792    1.3692 C   0  0  2  0  0  0
    0.3802   -2.8238    2.0500 C   0  0  0  0  0  0
    1.9228   -0.8098    1.5697 C   0  0  1  0  0  0
    3.2640   -0.5648    2.0005 O   0  0  0  0  0  0
    3.4841    0.6533    2.7006 C   0  0  0  0  0  0
    2.8070   -3.3140    1.7112 N   0  0  0  0  0  0
    3.2501   -3.6826    2.9821 C   0  0  0  0  0  0
    2.9158   -3.1757    4.2473 C   0  0  0  0  0  0
    3.4940   -3.7836    5.3613 C   0  0  0  0  0  0
    4.3697   -4.8575    5.2414 C   0  0  0  0  0  0
    4.7143   -5.3681    3.9933 C   0  0  0  0  0  0
    4.1624   -4.7798    2.8438 C   0  0  0  0  0  0
    4.3215   -5.0543    1.4734 C   0  0  0  0  0  0
    5.0468   -6.0034    0.7214 C   0  0  0  0  0  0
    5.9051   -7.1364    1.1936 C   0  0  0  0  0  0
    6.3239   -7.7316   -0.0638 N   0  0  0  0  0  0
    5.8683   -7.1274   -1.1745 C   0  0  0  0  0  0
    6.1155   -7.4683   -2.3278 O   0  0  0  0  0  0
    5.0288   -5.9882   -0.6768 C   0  0  0  0  0  0
    4.3153   -4.9885   -1.3809 C   0  0  0  0  0  0
    4.0727   -4.6244   -2.7373 C   0  0  0  0  0  0
    4.4460   -5.1879   -3.9702 C   0  0  0  0  0  0
    4.0390   -4.5695   -5.1506 C   0  0  0  0  0  0
    3.2779   -3.4047   -5.1316 C   0  0  0  0  0  0
    2.8885   -2.7984   -3.9382 C   0  0  0  0  0  0
    3.2894   -3.4172   -2.7485 C   0  0  0  0  0  0
    3.0900   -3.0592   -1.4298 N   0  0  0  0  0  0
    3.6159   -4.0502   -0.6158 C   0  0  0  0  0  0
    3.5569   -4.0977    0.7971 C   0  0  0  0  0  0
   -1.5998    1.2601   -0.5663 H   0  0  0  0  0  0
   -0.2577    0.9888   -1.7346 H   0  0  0  0  0  0
   -0.0814    2.2192   -0.4215 H   0  0  0  0  0  0
   -0.2453    0.4140    1.1835 H   0  0  0  0  0  0
    1.9581    1.0556    0.3066 H   0  0  0  0  0  0
    1.1647   -0.7651   -1.8745 H   0  0  0  0  0  0
    2.7997   -0.1182   -1.6522 H   0  0  0  0  0  0
    3.3545   -1.7367   -0.1599 H   0  0  0  0  0  0
    0.4218   -2.6552    3.1245 H   0  0  0  0  0  0
    0.2034   -3.8857    1.8706 H   0  0  0  0  0  0
   -0.4677   -2.2647    1.6531 H   0  0  0  0  0  0
    1.2889   -0.4838    2.3986 H   0  0  0  0  0  0
    4.5365    0.7238    2.9750 H   0  0  0  0  0  0
    2.9001    0.6919    3.6211 H   0  0  0  0  0  0
    3.2427    1.5268    2.0955 H   0  0  0  0  0  0
    2.2440   -2.3401    4.3725 H   0  0  0  0  0  0
    3.2537   -3.4112    6.3462 H   0  0  0  0  0  0
    4.7920   -5.3000    6.1316 H   0  0  0  0  0  0
    5.4001   -6.1990    3.9197 H   0  0  0  0  0  0
    6.7727   -6.8055    1.7658 H   0  0  0  0  0  0
    5.3574   -7.8635    1.7947 H   0  0  0  0  0  0
    6.9250   -8.5423   -0.0901 H   0  0  0  0  0  0
    5.0345   -6.0885   -4.0247 H   0  0  0  0  0  0
    4.3209   -5.0021   -6.0995 H   0  0  0  0  0  0
    2.9838   -2.9558   -6.0689 H   0  0  0  0  0  0
    2.3044   -1.8900   -3.9429 H   0  0  0  0  0  0
   -0.3670   -0.6983    0.0142 H   0  0  0  0  0  0
  1  2  1  0  0  0
  1 36  1  0  0  0
  1 37  1  0  0  0
  1 38  1  0  0  0
  2  3  1  0  0  0
  2 39  1  0  0  0
  2 62  1  0  0  0
  3  4  1  0  0  0
  3  9  1  0  0  0
  3 40  1  0  0  0
  4  5  1  0  0  0
  4 41  1  0  0  0
  4 42  1  0  0  0
  5  6  1  0  0  0
  5 33  1  0  0  0
  5 43  1  0  0  0
  6  7  1  0  0  0
  7  8  1  0  0  0
  7  9  1  0  0  0
  7 12  1  0  0  0
  8 44  1  0  0  0
  8 45  1  0  0  0
  8 46  1  0  0  0
  9 10  1  0  0  0
  9 47  1  0  0  0
 10 11  1  0  0  0
 11 48  1  0  0  0
 11 49  1  0  0  0
 11 50  1  0  0  0
 12 13  1  0  0  0
 12 35  1  0  0  0
 13 14  2  0  0  0
 13 18  1  0  0  0
 14 15  1  0  0  0
 14 51  1  0  0  0
 15 16  2  0  0  0
 15 52  1  0  0  0
 16 17  1  0  0  0
 16 53  1  0  0  0
 17 18  2  0  0  0
 17 54  1  0  0  0
 18 19  1  0  0  0
 19 20  1  0  0  0
 19 35  2  0  0  0
 20 21  1  0  0  0
 20 25  2  0  0  0
 21 22  1  0  0  0
 21 55  1  0  0  0
 21 56  1  0  0  0
 22 23  1  0  0  0
 22 57  1  0  0  0
 23 24  2  0  0  0
 23 25  1  0  0  0
 25 26  1  0  0  0
 26 27  1  0  0  0
 26 34  2  0  0  0
 27 28  2  0  0  0
 27 32  1  0  0  0
 28 29  1  0  0  0
 28 58  1  0  0  0
 29 30  2  0  0  0
 29 59  1  0  0  0
 30 31  1  0  0  0
 30 60  1  0  0  0
 31 32  2  0  0  0
 31 61  1  0  0  0
 32 33  1  0  0  0
 33 34  1  0  0  0
 34 35  1  0  0  0
M  CHG  1   2   1
M  END
> <chembl_id>
CHEMBL1980995

> <chembl_pref_name>
None

> <s_m_source_file>
sdf/actives_sanitized.sdf

> <i_m_source_file_index>
70

> <i_lp_mmshare_version>
49012

> <i_m_ct_stereo_status>
1

> <i_f3d_flags>
0

> <s_epik_input>
W0NIM11PW0NASF0xW0NASF0oW05IXVtDSDNdKVtDSDJdW0NAQEhdKE8yKW4oYzNjNDUpYyhbY0hdW2NIXVtjSF1bY0hdNiljNmMzYyhDKD1PKVtOSF1bQ0gyXTcpYzdjNWMoYzhuNFtDQEBdMTJbQ0gzXSlbY0hdW2NIXVtjSF1bY0hdOA==

> <s_epik_cmdline>
J2VwaWtfcHl0aG9uJywgJy1waHQnLCAnMC41JywgJy1waCcsICc3LjUnLCAnLW50JywgJy1tYScsICcyMDAnLCAnLWltYWUnLCAnPGluZmlsZS5tYWU+JywgJy1vbWFlJywgJzxvdXRmaWxlLm1hZT4n

> <r_epik_Ionization_Penalty>
  0.1614

> <r_epik_Ionization_Penalty_Charging>
  0.1614

> <r_epik_Ionization_Penalty_Neutral>
  0.0000

> <r_epik_State_Penalty>
  0.1508

> <r_epik_Charging_Adjusted_Penalty>
0.312199536005931

> <i_epik_Tot_Q>
1

> <i_epik_Tot_abs_Q>
1

> <s_epik_Chemistry_Notes>
This compound contains an acetal/aminal-like group ( X-CH(R)-Y where X, Y are N, S, or O) that may be acid/base labile, releasing an aldehyde.

> <s_lp_Force_Field>
OPLS3e

> <r_lp_Energy>
108.177669

> <b_lp_Chiralities_Consistent>
1

> <s_lp_Variant>
sdf/actives_sanitized.sdf:70-1

$$$$
sdf/actives_sanitized.sdf:71
                    3D
 Schrodinger Suite 2020-1.
 39 41  0  0  1  0            999 V2000
   -2.9479   -2.9312    0.0397 C   0  0  0  0  0  0
   -3.0687   -3.3786    1.3643 C   0  0  0  0  0  0
   -2.8863   -4.7289    1.6653 C   0  0  0  0  0  0
   -2.5851   -5.6389    0.6534 C   0  0  0  0  0  0
   -2.4650   -5.2002   -0.6642 C   0  0  0  0  0  0
   -2.6448   -3.8516   -0.9750 C   0  0  0  0  0  0
   -3.1303   -1.4741   -0.2885 C   0  0  0  0  0  0
   -1.9894   -0.6164   -0.1718 N   0  0  0  0  0  0
   -0.7812   -1.0402    0.2323 N   0  0  0  0  0  0
   -0.0439    0.0512    0.2207 C   0  0  0  0  0  0
   -0.6615    1.1470   -0.1855 N   0  0  0  0  0  0
   -1.8817    0.7382   -0.4230 C   0  0  0  0  0  0
    1.2907    0.0988    0.5599 N   0  0  0  0  0  0
    2.0805   -0.8543    1.2300 C   0  0  0  0  0  0
    3.4665   -0.7499    1.0894 C   0  0  0  0  0  0
    4.3115   -1.6487    1.7347 C   0  0  0  0  0  0
    3.7697   -2.6574    2.5323 C   0  0  0  0  0  0
    2.3880   -2.7621    2.6908 C   0  0  0  0  0  0
    1.5454   -1.8613    2.0457 C   0  0  0  0  0  0
    4.8345   -3.8217    3.3758 S   0  0  0  0  0  0
    4.4820   -3.7605    4.7982 O   0  0  0  0  0  0
    4.3394   -5.3936    2.7772 N   0  0  0  0  0  0
    6.2108   -3.5853    2.9261 O   0  0  0  0  0  0
   -4.2317   -1.0512   -0.6419 O   0  0  0  0  0  0
   -2.8955    1.5494   -0.8595 N   0  0  0  0  0  0
   -3.3557   -2.5150    2.3682 F   0  0  0  0  0  0
   -2.5176   -3.4521   -2.2634 F   0  0  0  0  0  0
   -2.9781   -5.0712    2.6857 H   0  0  0  0  0  0
   -2.4446   -6.6833    0.8901 H   0  0  0  0  0  0
   -2.2310   -5.9076   -1.4463 H   0  0  0  0  0  0
    1.8522    0.8371    0.1610 H   0  0  0  0  0  0
    3.8981    0.0279    0.4755 H   0  0  0  0  0  0
    5.3803   -1.5528    1.6118 H   0  0  0  0  0  0
    1.9664   -3.5338    3.3184 H   0  0  0  0  0  0
    0.4826   -1.9524    2.2074 H   0  0  0  0  0  0
    4.5482   -5.5570    1.7890 H   0  0  0  0  0  0
    3.3920   -5.6725    3.0443 H   0  0  0  0  0  0
   -2.7495    2.5345   -1.0273 H   0  0  0  0  0  0
   -3.8287    1.1936   -1.0131 H   0  0  0  0  0  0
  1  2  2  0  0  0
  1  7  1  0  0  0
  1  6  1  0  0  0
  2  3  1  0  0  0
  2 26  1  0  0  0
  3  4  2  0  0  0
  3 28  1  0  0  0
  4  5  1  0  0  0
  4 29  1  0  0  0
  5  6  2  0  0  0
  5 30  1  0  0  0
  6 27  1  0  0  0
  7  8  1  0  0  0
  7 24  2  0  0  0
  8  9  1  0  0  0
  8 12  1  0  0  0
  9 10  2  0  0  0
 10 13  1  0  0  0
 10 11  1  0  0  0
 11 12  2  0  0  0
 12 25  1  0  0  0
 13 14  1  0  0  0
 13 31  1  0  0  0
 14 15  2  0  0  0
 14 19  1  0  0  0
 15 16  1  0  0  0
 15 32  1  0  0  0
 16 17  2  0  0  0
 16 33  1  0  0  0
 17 18  1  0  0  0
 17 20  1  0  0  0
 18 19  2  0  0  0
 18 34  1  0  0  0
 19 35  1  0  0  0
 20 21  2  0  0  0
 20 22  1  0  0  0
 20 23  2  0  0  0
 22 36  1  0  0  0
 22 37  1  0  0  0
 25 38  1  0  0  0
 25 39  1  0  0  0
M  END
> <chembl_id>
CHEMBL191003

> <chembl_pref_name>
JNJ-7706621

> <s_m_source_file>
sdf/actives_sanitized.sdf

> <i_m_source_file_index>
71

> <i_lp_mmshare_version>
49012

> <i_m_ct_stereo_status>
1

> <i_f3d_flags>
0

> <s_epik_input>
RmMxW2NIXVtjSF1bY0hdYyhGKWMxQyg9TyluMm5jKG5jMltOSDJdKVtOSF1jM1tjSF1bY0hdYyhbY0hdW2NIXTMpUyg9TykoPU8pW05IMl0=

> <s_epik_cmdline>
J2VwaWtfcHl0aG9uJywgJy1waHQnLCAnMC41JywgJy1waCcsICc3LjUnLCAnLW50JywgJy1tYScsICcyMDAnLCAnLWltYWUnLCAnPGluZmlsZS5tYWU+JywgJy1vbWFlJywgJzxvdXRmaWxlLm1hZT4n

> <r_lp_tautomer_probability>
1

> <r_epik_Ionization_Penalty>
  0.0020

> <r_epik_Ionization_Penalty_Charging>
  0.0000

> <r_epik_Ionization_Penalty_Neutral>
  0.0020

> <r_epik_State_Penalty>
 -0.0000

> <r_epik_Charging_Adjusted_Penalty>
0

> <i_epik_Tot_Q>
0

> <i_epik_Tot_abs_Q>
0

> <s_lp_Force_Field>
OPLS3e

> <r_lp_Energy>
16.818603

> <b_lp_Chiralities_Consistent>
1

> <s_lp_Variant>
sdf/actives_sanitized.sdf:71-1

$$$$
sdf/actives_sanitized.sdf:72
                    3D
 Schrodinger Suite 2020-1.
 31 32  0  0  1  0            999 V2000
   -4.3019    4.7202   -0.0453 Br  0  0  0  0  0  0
   -5.5141   -0.9498    0.0249 Br  0  0  0  0  0  0
   -5.9675    2.1115   -0.0214 O   0  5  0  0  0  0
    1.5848   -2.4374    0.0042 O   0  0  0  0  0  0
   -0.0176   -0.1775    0.0139 N   0  0  0  0  0  0
    1.3294   -0.1698    0.0183 N   0  0  0  0  0  0
    3.3773   -1.0033    0.0568 N   0  0  0  0  0  0
   -4.7239    1.8456   -0.0110 C   0  0  0  0  0  0
   -1.9640    1.2587    0.0082 C   0  0  0  0  0  0
   -3.7795    2.8823   -0.0198 C   0  0  0  0  0  0
   -4.2856    0.5137    0.0096 C   0  0  0  0  0  0
   -2.4168    2.5829   -0.0098 C   0  0  0  0  0  0
   -2.9191    0.2310    0.0193 C   0  0  0  0  0  0
   -0.5194    0.9921    0.0137 C   0  0  0  0  0  0
    2.0615   -1.2991    0.0207 C   0  0  0  0  0  0
    4.4850   -1.8711    0.0112 C   0  0  0  0  0  0
    5.7103   -1.3215    0.3989 C   0  0  0  0  0  0
    4.4289   -3.2068   -0.4210 C   0  0  0  0  0  0
    6.8665   -2.0971    0.3749 C   0  0  0  0  0  0
    5.5871   -3.9795   -0.4440 C   0  0  0  0  0  0
    6.7994   -3.4231   -0.0444 C   0  0  0  0  0  0
    1.7598    0.7433    0.0261 H   0  0  0  0  0  0
    3.6154   -0.0296    0.1752 H   0  0  0  0  0  0
   -1.7098    3.4010   -0.0172 H   0  0  0  0  0  0
   -2.6084   -0.8043    0.0353 H   0  0  0  0  0  0
    0.0982    1.8904    0.0169 H   0  0  0  0  0  0
    5.7739   -0.2928    0.7246 H   0  0  0  0  0  0
    3.5110   -3.6629   -0.7566 H   0  0  0  0  0  0
    7.8117   -1.6714    0.6785 H   0  0  0  0  0  0
    5.5455   -5.0065   -0.7760 H   0  0  0  0  0  0
    7.6962   -4.0246   -0.0648 H   0  0  0  0  0  0
  1 10  1  0  0  0
  2 11  1  0  0  0
  3  8  1  0  0  0
  4 15  2  0  0  0
  5  6  1  0  0  0
  5 14  2  3  0  0
  6 15  1  0  0  0
  6 22  1  0  0  0
  7 15  1  0  0  0
  7 16  1  0  0  0
  7 23  1  0  0  0
  8 10  2  0  0  0
  8 11  1  0  0  0
  9 12  2  0  0  0
  9 13  1  0  0  0
  9 14  1  0  0  0
 10 12  1  0  0  0
 11 13  2  0  0  0
 12 24  1  0  0  0
 13 25  1  0  0  0
 14 26  1  0  0  0
 16 17  2  0  0  0
 16 18  1  0  0  0
 17 19  1  0  0  0
 17 27  1  0  0  0
 18 20  2  0  0  0
 18 28  1  0  0  0
 19 21  2  0  0  0
 19 29  1  0  0  0
 20 21  1  0  0  0
 20 30  1  0  0  0
 21 31  1  0  0  0
M  CHG  1   3  -1
M  END
> <chembl_id>
CHEMBL1983575

> <chembl_pref_name>
None

> <s_m_source_file>
sdf/actives_sanitized.sdf

> <i_m_source_file_index>
72

> <i_lp_mmshare_version>
49012

> <i_m_ct_stereo_status>
1

> <i_f3d_flags>
0

> <s_epik_input>
W09IXWMxYyhCcilbY0hdYyhbY0hdYzFCcilcW0NIXT1OXFtOSF1DKD1PKVtOSF1jMltjSF1bY0hdW2NIXVtjSF1bY0hdMg==

> <s_epik_cmdline>
J2VwaWtfcHl0aG9uJywgJy1waHQnLCAnMC41JywgJy1waCcsICc3LjUnLCAnLW50JywgJy1tYScsICcyMDAnLCAnLWltYWUnLCAnPGluZmlsZS5tYWU+JywgJy1vbWFlJywgJzxvdXRmaWxlLm1hZT4n

> <r_epik_Ionization_Penalty>
  0.0547

> <r_epik_Ionization_Penalty_Charging>
  0.0547

> <r_epik_Ionization_Penalty_Neutral>
  0.0000

> <r_epik_State_Penalty>
  0.0471

> <r_epik_Charging_Adjusted_Penalty>
0.101746999024234

> <i_epik_Tot_Q>
-1

> <i_epik_Tot_abs_Q>
1

> <s_epik_Chemistry_Notes>
This compound has an imine and may undergo hydrolysis.

> <s_lp_Force_Field>
OPLS3e

> <r_lp_Energy>
41.495776

> <b_lp_Chiralities_Consistent>
1

> <s_lp_Variant>
sdf/actives_sanitized.sdf:72-1

$$$$
sdf/actives_sanitized.sdf:73
                    3D
 Schrodinger Suite 2020-1.
 76 81  0  0  1  0            999 V2000
   -5.6039   -0.3702   -4.2846 C   0  0  0  0  0  0
   -5.5616   -0.0274   -2.7831 N   0  3  0  0  0  0
   -4.7093    1.2331   -2.5328 C   0  0  0  0  0  0
   -4.6875    1.5195   -1.0133 C   0  0  0  0  0  0
   -4.1024    0.4060   -0.2381 N   0  0  0  0  0  0
   -4.9381   -0.7861   -0.4840 C   0  0  0  0  0  0
   -4.9705   -1.1979   -1.9727 C   0  0  0  0  0  0
   -2.7259    0.3413    0.0051 C   0  0  0  0  0  0
   -2.0103    1.4937    0.3456 C   0  0  0  0  0  0
   -0.6465    1.4433    0.6093 C   0  0  0  0  0  0
    0.0626    0.2348    0.5537 C   0  0  0  0  0  0
    1.5487    0.2484    0.8647 C   0  0  0  0  0  0
    2.0558   -0.6470    1.5448 O   0  0  0  0  0  0
    2.2331    1.2952    0.3472 N   0  0  0  0  0  0
    3.5946    1.5300    0.4815 C   0  0  0  0  0  0
    4.5252    0.6287    0.7076 N   0  0  0  0  0  0
    5.7026    1.2757    0.7602 N   0  0  0  0  0  0
    5.5558    2.6336    0.5620 C   0  0  0  0  0  0
    6.4770    3.6846    0.5302 C   0  0  0  0  0  0
    5.9658    4.9633    0.3009 C   0  0  0  0  0  0
    4.6014    5.1949    0.1047 C   0  0  0  0  0  0
    4.0962    6.6134   -0.1187 C   0  0  0  0  0  0
    3.8408    6.9334   -1.5842 C   0  0  0  0  0  0
    2.5626    6.7718   -2.1299 C   0  0  0  0  0  0
    2.3266    7.0805   -3.4702 C   0  0  0  0  0  0
    1.0907    6.9163   -3.9934 F   0  0  0  0  0  0
    3.3648    7.5593   -4.2694 C   0  0  0  0  0  0
    4.6390    7.7314   -3.7283 C   0  0  0  0  0  0
    5.6445    8.1988   -4.5021 F   0  0  0  0  0  0
    4.8758    7.4228   -2.3882 C   0  0  0  0  0  0
    3.6884    4.1372    0.1484 C   0  0  0  0  0  0
    4.1664    2.8366    0.3737 C   0  0  0  0  0  0
   -0.6413   -0.9521    0.2317 C   0  0  0  0  0  0
    0.0406   -2.1893    0.1504 N   0  0  0  0  0  0
   -0.6011   -3.4666   -0.1637 C   0  0  0  0  0  0
   -1.4328   -3.9664    1.0439 C   0  0  0  0  0  0
   -1.9162   -5.4115    0.8118 C   0  0  0  0  0  0
   -0.8036   -6.2614    0.5353 O   0  0  0  0  0  0
   -0.0826   -5.9051   -0.6436 C   0  0  0  0  0  0
    0.5064   -4.4888   -0.4928 C   0  0  0  0  0  0
   -2.0196   -0.8705   -0.0325 C   0  0  0  0  0  0
   -4.5825   -0.5532   -4.6226 H   0  0  0  0  0  0
   -6.0501    0.4837   -4.7959 H   0  0  0  0  0  0
   -6.2286   -1.2577   -4.3932 H   0  0  0  0  0  0
   -3.7132    1.0494   -2.9412 H   0  0  0  0  0  0
   -5.1859    2.0419   -3.0885 H   0  0  0  0  0  0
   -4.1606    2.4556   -0.8373 H   0  0  0  0  0  0
   -5.7040    1.7002   -0.6592 H   0  0  0  0  0  0
   -4.6164   -1.6193    0.1409 H   0  0  0  0  0  0
   -5.9545   -0.5732   -0.1474 H   0  0  0  0  0  0
   -3.9792   -1.4167   -2.3752 H   0  0  0  0  0  0
   -5.6277   -2.0524   -2.1404 H   0  0  0  0  0  0
   -2.5021    2.4503    0.4335 H   0  0  0  0  0  0
   -0.1485    2.3650    0.8761 H   0  0  0  0  0  0
    1.6956    2.0380   -0.0745 H   0  0  0  0  0  0
    6.5567    0.7640    0.9287 H   0  0  0  0  0  0
    7.5353    3.5243    0.6765 H   0  0  0  0  0  0
    6.6547    5.7954    0.2721 H   0  0  0  0  0  0
    3.1800    6.7627    0.4556 H   0  0  0  0  0  0
    4.8079    7.3333    0.2897 H   0  0  0  0  0  0
    1.7520    6.4030   -1.5183 H   0  0  0  0  0  0
    3.1818    7.7985   -5.3067 H   0  0  0  0  0  0
    5.8652    7.5605   -1.9768 H   0  0  0  0  0  0
    2.6327    4.3177    0.0071 H   0  0  0  0  0  0
    0.9964   -2.1039   -0.1651 H   0  0  0  0  0  0
   -1.2243   -3.3382   -1.0498 H   0  0  0  0  0  0
   -0.8315   -3.9339    1.9546 H   0  0  0  0  0  0
   -2.2958   -3.3291    1.2317 H   0  0  0  0  0  0
   -2.4273   -5.7834    1.7002 H   0  0  0  0  0  0
   -2.6386   -5.4560   -0.0055 H   0  0  0  0  0  0
    0.7175   -6.6296   -0.7966 H   0  0  0  0  0  0
   -0.7330   -5.9681   -1.5181 H   0  0  0  0  0  0
    1.2670   -4.4994    0.2907 H   0  0  0  0  0  0
    1.0176   -4.2082   -1.4150 H   0  0  0  0  0  0
   -2.5495   -1.7661   -0.3081 H   0  0  0  0  0  0
   -6.4996    0.1501   -2.4514 H   0  0  0  0  0  0
  1  2  1  0  0  0
  1 42  1  0  0  0
  1 43  1  0  0  0
  1 44  1  0  0  0
  2  3  1  0  0  0
  2  7  1  0  0  0
  2 76  1  0  0  0
  3  4  1  0  0  0
  3 45  1  0  0  0
  3 46  1  0  0  0
  4  5  1  0  0  0
  4 47  1  0  0  0
  4 48  1  0  0  0
  5  6  1  0  0  0
  5  8  1  0  0  0
  6  7  1  0  0  0
  6 49  1  0  0  0
  6 50  1  0  0  0
  7 51  1  0  0  0
  7 52  1  0  0  0
  8  9  2  0  0  0
  8 41  1  0  0  0
  9 10  1  0  0  0
  9 53  1  0  0  0
 10 11  2  0  0  0
 10 54  1  0  0  0
 11 12  1  0  0  0
 11 33  1  0  0  0
 12 13  2  0  0  0
 12 14  1  0  0  0
 14 15  1  0  0  0
 14 55  1  0  0  0
 15 16  2  0  0  0
 15 32  1  0  0  0
 16 17  1  0  0  0
 17 18  1  0  0  0
 17 56  1  0  0  0
 18 19  2  0  0  0
 18 32  1  0  0  0
 19 20  1  0  0  0
 19 57  1  0  0  0
 20 21  2  0  0  0
 20 58  1  0  0  0
 21 22  1  0  0  0
 21 31  1  0  0  0
 22 23  1  0  0  0
 22 59  1  0  0  0
 22 60  1  0  0  0
 23 24  2  0  0  0
 23 30  1  0  0  0
 24 25  1  0  0  0
 24 61  1  0  0  0
 25 26  1  0  0  0
 25 27  2  0  0  0
 27 28  1  0  0  0
 27 62  1  0  0  0
 28 29  1  0  0  0
 28 30  2  0  0  0
 30 63  1  0  0  0
 31 32  2  0  0  0
 31 64  1  0  0  0
 33 34  1  0  0  0
 33 41  2  0  0  0
 34 35  1  0  0  0
 34 65  1  0  0  0
 35 36  1  0  0  0
 35 40  1  0  0  0
 35 66  1  0  0  0
 36 37  1  0  0  0
 36 67  1  0  0  0
 36 68  1  0  0  0
 37 38  1  0  0  0
 37 69  1  0  0  0
 37 70  1  0  0  0
 38 39  1  0  0  0
 39 40  1  0  0  0
 39 71  1  0  0  0
 39 72  1  0  0  0
 40 73  1  0  0  0
 40 74  1  0  0  0
 41 75  1  0  0  0
M  CHG  1   2   1
M  END
> <chembl_id>
CHEMBL1983268

> <chembl_pref_name>
ENTRECTINIB

> <s_m_source_file>
sdf/actives_sanitized.sdf

> <i_m_source_file_index>
73

> <i_lp_mmshare_version>
49012

> <i_m_ct_stereo_status>
1

> <i_f3d_flags>
0

> <s_epik_input>
W0NIM11OMVtDSDJdW0NIMl1OKFtDSDJdW0NIMl0xKWMyW2NIXVtjSF1jKGMoW2NIXTIpW05IXVtDSF0zW0NIMl1bQ0gyXU9bQ0gyXVtDSDJdMylDKD1PKVtOSF1jKG5bbkhdNCljKGM0NSlbY0hdYyhbY0hdW2NIXTUpW0NIMl1jNltjSF1jKEYpW2NIXWMoRilbY0hdNg==

> <s_epik_cmdline>
J2VwaWtfcHl0aG9uJywgJy1waHQnLCAnMC41JywgJy1waCcsICc3LjUnLCAnLW50JywgJy1tYScsICcyMDAnLCAnLWltYWUnLCAnPGluZmlsZS5tYWU+JywgJy1vbWFlJywgJzxvdXRmaWxlLm1hZT4n

> <r_lp_tautomer_probability>
0.980392156862745

> <r_epik_Ionization_Penalty>
  0.1845

> <r_epik_Ionization_Penalty_Charging>
  0.1844

> <r_epik_Ionization_Penalty_Neutral>
  0.0000

> <r_epik_State_Penalty>
  0.1740

> <r_epik_Charging_Adjusted_Penalty>
0.358412825985856

> <i_epik_Tot_Q>
1

> <i_epik_Tot_abs_Q>
1

> <s_lp_Force_Field>
OPLS3e

> <r_lp_Energy>
78.974964

> <b_lp_Chiralities_Consistent>
1

> <s_lp_Variant>
sdf/actives_sanitized.sdf:73-1

$$$$
sdf/actives_sanitized.sdf:74
                    3D
 Schrodinger Suite 2020-1.
 46 48  0  0  1  0            999 V2000
    2.1048   -0.9874    2.9119 Cl  0  0  0  0  0  0
    9.3756    3.4161    1.6883 F   0  0  0  0  0  0
   -3.8216    3.2421    0.5323 O   0  0  0  0  0  0
    0.4797    1.0097    1.2949 N   0  0  0  0  0  0
    2.3110    1.6244   -0.1362 N   0  0  0  0  0  0
    4.0461    2.2703   -1.5511 N   0  0  0  0  0  0
    4.4786    0.6178    0.1359 N   0  0  0  0  0  0
   -0.4237    2.5867   -0.2563 N   0  0  0  0  0  0
   -1.6199    3.1623   -0.4129 N   0  0  0  0  0  0
    6.4143    3.6939   -0.4139 N   0  0  0  0  0  0
    1.8268    0.8814    0.8995 C   0  0  0  0  0  0
   -0.5397    1.7929    0.7930 C   0  0  0  0  0  0
    3.6156    1.4735   -0.4765 C   0  0  0  0  0  0
    2.6587   -0.0180    1.5879 C   0  0  0  0  0  0
   -2.5341    2.7646    0.5184 C   0  0  0  0  0  0
   -1.8417    1.8627    1.3134 C   0  0  0  0  0  0
    3.9859   -0.1151    1.1654 C   0  0  0  0  0  0
    5.3953    2.2321   -2.1264 C   0  0  2  0  0  0
    6.4900    2.5126   -1.0904 C   0  0  0  0  0  0
    7.5311    1.5986   -0.8882 C   0  0  0  0  0  0
    8.4387    3.0998    0.7662 C   0  0  0  0  0  0
    7.3780    3.9673    0.5023 C   0  0  0  0  0  0
    8.5137    1.8998    0.0571 C   0  0  0  0  0  0
   -4.6593    2.7990    1.6012 C   0  0  0  0  0  0
    5.5076    3.1811   -3.3326 C   0  0  0  0  0  0
   -6.1115    3.0388    1.1633 C   0  0  0  0  0  0
   -4.3286    3.5546    2.9033 C   0  0  0  0  0  0
    0.2727    0.4132    2.0825 H   0  0  0  0  0  0
    3.3312    2.7478   -2.0806 H   0  0  0  0  0  0
   -1.8040    3.8253   -1.1520 H   0  0  0  0  0  0
   -2.2221    1.3216    2.1668 H   0  0  0  0  0  0
    4.6772   -0.7876    1.6517 H   0  0  0  0  0  0
    5.5355    1.2204   -2.5111 H   0  0  0  0  0  0
    7.5759    0.6737   -1.4444 H   0  0  0  0  0  0
    7.2890    4.9054    1.0295 H   0  0  0  0  0  0
    9.3244    1.2094    0.2375 H   0  0  0  0  0  0
   -4.5420    1.7247    1.7598 H   0  0  0  0  0  0
    6.4965    3.1220   -3.7888 H   0  0  0  0  0  0
    5.3374    4.2200   -3.0463 H   0  0  0  0  0  0
    4.7791    2.9275   -4.1037 H   0  0  0  0  0  0
   -6.8148    2.7102    1.9291 H   0  0  0  0  0  0
   -6.3407    2.4885    0.2501 H   0  0  0  0  0  0
   -6.3000    4.0956    0.9692 H   0  0  0  0  0  0
   -4.9763    3.2313    3.7188 H   0  0  0  0  0  0
   -4.4603    4.6301    2.7809 H   0  0  0  0  0  0
   -3.3000    3.3838    3.2204 H   0  0  0  0  0  0
  1 14  1  0  0  0
  2 21  1  0  0  0
  3 15  1  0  0  0
  3 24  1  0  0  0
  4 11  1  0  0  0
  4 12  1  0  0  0
  4 28  1  0  0  0
  5 11  2  0  0  0
  5 13  1  0  0  0
  6 13  1  0  0  0
  6 18  1  0  0  0
  6 29  1  0  0  0
  7 13  2  0  0  0
  7 17  1  0  0  0
  8  9  1  0  0  0
  8 12  2  0  0  0
  9 15  1  0  0  0
  9 30  1  0  0  0
 10 19  2  0  0  0
 10 22  1  0  0  0
 11 14  1  0  0  0
 12 16  1  0  0  0
 14 17  2  0  0  0
 15 16  2  0  0  0
 16 31  1  0  0  0
 17 32  1  0  0  0
 18 19  1  0  0  0
 18 25  1  0  0  0
 18 33  1  0  0  0
 19 20  1  0  0  0
 20 23  2  0  0  0
 20 34  1  0  0  0
 21 22  2  0  0  0
 21 23  1  0  0  0
 22 35  1  0  0  0
 23 36  1  0  0  0
 24 26  1  0  0  0
 24 27  1  0  0  0
 24 37  1  0  0  0
 25 38  1  0  0  0
 25 39  1  0  0  0
 25 40  1  0  0  0
 26 41  1  0  0  0
 26 42  1  0  0  0
 26 43  1  0  0  0
 27 44  1  0  0  0
 27 45  1  0  0  0
 27 46  1  0  0  0
M  END
> <chembl_id>
CHEMBL2007421

> <chembl_pref_name>
None

> <s_m_source_file>
sdf/actives_sanitized.sdf

> <i_m_source_file_index>
74

> <i_lp_mmshare_version>
49012

> <i_m_ct_stereo_status>
1

> <i_f3d_flags>
0

> <s_epik_input>
W2NIXTFbY0hdYyhGKVtjSF1uYzFbQ0BIXShbQ0gzXSlbTkhdYyhuW2NIXWMyQ2wpbmMyW05IXWMzbltuSF1jKFtjSF0zKU9bQ0hdKFtDSDNdKVtDSDNd

> <s_epik_cmdline>
J2VwaWtfcHl0aG9uJywgJy1waHQnLCAnMC41JywgJy1waCcsICc3LjUnLCAnLW50JywgJy1tYScsICcyMDAnLCAnLWltYWUnLCAnPGluZmlsZS5tYWU+JywgJy1vbWFlJywgJzxvdXRmaWxlLm1hZT4n

> <r_lp_tautomer_probability>
1

> <r_epik_Ionization_Penalty>
  0.0019

> <r_epik_Ionization_Penalty_Charging>
  0.0000

> <r_epik_Ionization_Penalty_Neutral>
  0.0019

> <r_epik_State_Penalty>
 -0.0000

> <r_epik_Charging_Adjusted_Penalty>
0

> <i_epik_Tot_Q>
0

> <i_epik_Tot_abs_Q>
0

> <s_lp_Force_Field>
OPLS3e

> <r_lp_Energy>
23.859418

> <b_lp_Chiralities_Consistent>
1

> <s_lp_Variant>
sdf/actives_sanitized.sdf:74-1

$$$$
sdf/actives_sanitized.sdf:75
                    3D
 Schrodinger Suite 2020-1.
 55 59  0  0  1  0            999 V2000
    6.0763   -0.2571   -0.3285 Cl  0  0  0  0  0  0
    4.4109    2.2888   -0.0754 N   0  0  0  0  0  0
    2.3192    1.1562   -0.3246 N   0  0  0  0  0  0
    0.2365    0.0341   -0.5871 N   0  0  0  0  0  0
   -3.2055    4.3315    0.4156 N   0  0  0  0  0  0
    2.2140   -1.2256   -0.6520 N   0  0  0  0  0  0
    2.9762    7.4414    1.3761 N   0  0  0  0  0  0
    1.7081    7.2779    1.7974 N   0  0  0  0  0  0
   -4.4904    5.4047    2.8585 N   0  3  0  0  0  0
    3.6769    1.1017   -0.2643 C   0  0  0  0  0  0
    2.5357    5.2771    1.1457 C   0  0  0  0  0  0
    4.0569    3.6013    0.2935 C   0  0  0  0  0  0
    3.5440    6.2512    0.9650 C   0  0  0  0  0  0
    1.6372   -0.0063   -0.5082 C   0  0  0  0  0  0
    4.3513   -0.1237   -0.3954 C   0  0  0  0  0  0
    2.7992    3.9420    0.8125 C   0  0  0  0  0  0
   -0.6325    1.0981   -0.2963 C   0  0  0  0  0  0
   -2.3426    3.2634    0.1998 C   0  0  0  0  0  0
    5.0347    4.5895    0.1429 C   0  0  0  0  0  0
    4.8089    5.9292    0.4669 C   0  0  0  0  0  0
    1.4286    6.0064    1.6728 C   0  0  0  0  0  0
    3.5706   -1.2667   -0.5901 C   0  0  0  0  0  0
   -1.7077    1.3480   -1.1479 C   0  0  0  0  0  0
   -0.4421    1.9002    0.8318 C   0  0  0  0  0  0
   -2.5576    2.4234   -0.8992 C   0  0  0  0  0  0
   -1.2865    2.9784    1.0744 C   0  0  0  0  0  0
   -4.6161    4.0761    0.7484 C   0  0  0  0  0  0
   -2.7682    5.5948    1.0383 C   0  0  0  0  0  0
   -4.8777    4.0353    2.2686 C   0  0  0  0  0  0
   -3.0000    5.6665    2.5667 C   0  0  0  0  0  0
   -4.7634    5.4444    4.3744 C   0  0  0  0  0  0
    5.4019    2.1693   -0.2263 H   0  0  0  0  0  0
   -0.2073   -0.8458   -0.8070 H   0  0  0  0  0  0
    3.4017    8.3573    1.3869 H   0  0  0  0  0  0
    2.0331    3.2053    0.9760 H   0  0  0  0  0  0
    6.0059    4.3198   -0.2474 H   0  0  0  0  0  0
    5.5803    6.6735    0.3341 H   0  0  0  0  0  0
    0.4587    5.6230    1.9512 H   0  0  0  0  0  0
    4.0283   -2.2389   -0.7015 H   0  0  0  0  0  0
   -1.8768    0.7261   -2.0154 H   0  0  0  0  0  0
    0.3662    1.6983    1.5194 H   0  0  0  0  0  0
   -3.3756    2.6127   -1.5797 H   0  0  0  0  0  0
   -1.1016    3.5876    1.9450 H   0  0  0  0  0  0
   -5.2338    4.8467    0.2844 H   0  0  0  0  0  0
   -4.9381    3.1306    0.3098 H   0  0  0  0  0  0
   -1.7095    5.7528    0.8283 H   0  0  0  0  0  0
   -3.2919    6.4193    0.5521 H   0  0  0  0  0  0
   -4.2878    3.2712    2.7792 H   0  0  0  0  0  0
   -5.9353    3.8881    2.4917 H   0  0  0  0  0  0
   -2.7849    6.6633    2.9548 H   0  0  0  0  0  0
   -2.4208    4.9326    3.1288 H   0  0  0  0  0  0
   -4.1709    4.6604    4.8493 H   0  0  0  0  0  0
   -5.8331    5.2799    4.5114 H   0  0  0  0  0  0
   -4.4753    6.4357    4.7263 H   0  0  0  0  0  0
   -5.0387    6.1180    2.3982 H   0  0  0  0  0  0
  1 15  1  0  0  0
  2 10  1  0  0  0
  2 12  1  0  0  0
  2 32  1  0  0  0
  3 10  2  0  0  0
  3 14  1  0  0  0
  4 14  1  0  0  0
  4 17  1  0  0  0
  4 33  1  0  0  0
  5 18  1  0  0  0
  5 27  1  0  0  0
  5 28  1  0  0  0
  6 14  2  0  0  0
  6 22  1  0  0  0
  7  8  1  0  0  0
  7 13  1  0  0  0
  7 34  1  0  0  0
  8 21  2  0  0  0
  9 29  1  0  0  0
  9 30  1  0  0  0
  9 31  1  0  0  0
  9 55  1  0  0  0
 10 15  1  0  0  0
 11 13  2  0  0  0
 11 16  1  0  0  0
 11 21  1  0  0  0
 12 16  2  0  0  0
 12 19  1  0  0  0
 13 20  1  0  0  0
 15 22  2  0  0  0
 16 35  1  0  0  0
 17 23  2  0  0  0
 17 24  1  0  0  0
 18 25  2  0  0  0
 18 26  1  0  0  0
 19 20  2  0  0  0
 19 36  1  0  0  0
 20 37  1  0  0  0
 21 38  1  0  0  0
 22 39  1  0  0  0
 23 25  1  0  0  0
 23 40  1  0  0  0
 24 26  2  0  0  0
 24 41  1  0  0  0
 25 42  1  0  0  0
 26 43  1  0  0  0
 27 29  1  0  0  0
 27 44  1  0  0  0
 27 45  1  0  0  0
 28 30  1  0  0  0
 28 46  1  0  0  0
 28 47  1  0  0  0
 29 48  1  0  0  0
 29 49  1  0  0  0
 30 50  1  0  0  0
 30 51  1  0  0  0
 31 52  1  0  0  0
 31 53  1  0  0  0
 31 54  1  0  0  0
M  CHG  1   9   1
M  END
> <chembl_id>
CHEMBL1979690

> <chembl_pref_name>
None

> <s_m_source_file>
sdf/actives_sanitized.sdf

> <i_m_source_file_index>
75

> <i_lp_mmshare_version>
49012

> <i_m_ct_stereo_status>
1

> <i_f3d_flags>
0

> <s_epik_input>
W2NIXTFuW25IXWMoYzEyKVtjSF1bY0hdYyhbY0hdMilbTkhdYzNuYyhuW2NIXWMzQ2wpW05IXWM0W2NIXVtjSF1jKFtjSF1bY0hdNClONVtDSDJdW0NIMl1OKFtDSDNdKVtDSDJdW0NIMl01

> <s_epik_cmdline>
J2VwaWtfcHl0aG9uJywgJy1waHQnLCAnMC41JywgJy1waCcsICc3LjUnLCAnLW50JywgJy1tYScsICcyMDAnLCAnLWltYWUnLCAnPGluZmlsZS5tYWU+JywgJy1vbWFlJywgJzxvdXRmaWxlLm1hZT4n

> <r_lp_tautomer_probability>
1

> <r_epik_Ionization_Penalty>
  0.1870

> <r_epik_Ionization_Penalty_Charging>
  0.1844

> <r_epik_Ionization_Penalty_Neutral>
  0.0026

> <r_epik_State_Penalty>
 -0.0000

> <r_epik_Charging_Adjusted_Penalty>
0.184430146395475

> <i_epik_Tot_Q>
1

> <i_epik_Tot_abs_Q>
1

> <s_lp_Force_Field>
OPLS3e

> <r_lp_Energy>
53.793823

> <b_lp_Chiralities_Consistent>
1

> <s_lp_Variant>
sdf/actives_sanitized.sdf:75-1

$$$$
sdf/actives_sanitized.sdf:76
                    3D
 Schrodinger Suite 2020-1.
 64 68  0  0  1  0            999 V2000
    5.5904   -0.3433   -0.3459 F   0  0  0  0  0  0
    1.1235    4.5131   -1.8708 O   0  0  0  0  0  0
    4.3473    2.1401   -0.6960 N   0  0  0  0  0  0
    2.2423    1.1051   -0.1950 N   0  0  0  0  0  0
    0.1860    0.0571    0.4047 N   0  0  0  0  0  0
   -3.0453    4.5366   -0.6442 N   0  0  0  0  0  0
    2.1337   -1.2382    0.3688 N   0  0  0  0  0  0
    1.3119    3.1722   -3.6524 N   0  0  0  0  0  0
   -2.0257    7.0611   -1.8614 N   0  3  0  0  0  0
    3.7568    3.4643   -0.8996 C   0  0  2  0  0  0
    3.3574    3.7170   -2.3948 C   0  0  2  0  0  0
    4.8000    4.5949   -0.6626 C   0  0  1  0  0  0
    4.1464    5.0201   -2.7446 C   0  0  2  0  0  0
    5.4628    4.7642   -2.0242 C   0  0  0  0  0  0
    4.0548    5.9250   -0.6197 C   0  0  0  0  0  0
    3.6702    6.1927   -1.8840 C   0  0  0  0  0  0
    3.5919    1.0035   -0.3594 C   0  0  0  0  0  0
    1.8304    3.8358   -2.6155 C   0  0  0  0  0  0
    4.2518   -0.2198   -0.1815 C   0  0  0  0  0  0
    1.5665   -0.0211    0.1712 C   0  0  0  0  0  0
   -2.3273    3.3634   -0.3840 C   0  0  0  0  0  0
   -0.6736    1.1284    0.1296 C   0  0  0  0  0  0
   -2.2990    2.7625    0.8989 C   0  0  0  0  0  0
    3.4761   -1.3225    0.1808 C   0  0  0  0  0  0
   -1.4750    1.6562    1.1392 C   0  0  0  0  0  0
   -1.5676    2.7622   -1.4025 C   0  0  0  0  0  0
   -0.7473    1.6679   -1.1513 C   0  0  0  0  0  0
   -2.7578    5.7533    0.1416 C   0  0  0  0  0  0
   -3.4103    4.9666   -2.0101 C   0  0  0  0  0  0
   -3.1878    3.2247    2.0504 C   0  0  0  0  0  0
   -1.6116    6.5999   -0.4521 C   0  0  0  0  0  0
   -2.3295    5.8197   -2.7208 C   0  0  0  0  0  0
   -0.9076    7.9046   -2.5045 C   0  0  0  0  0  0
    5.3498    2.0504   -0.7784 H   0  0  0  0  0  0
   -0.2556   -0.7996    0.7055 H   0  0  0  0  0  0
    0.3209    3.2146   -3.8380 H   0  0  0  0  0  0
    1.9057    2.6177   -4.2517 H   0  0  0  0  0  0
    2.9236    3.6145   -0.2089 H   0  0  0  0  0  0
    3.7142    2.9059   -3.0353 H   0  0  0  0  0  0
    5.4980    4.4351    0.1605 H   0  0  0  0  0  0
    4.2636    5.2296   -3.8085 H   0  0  0  0  0  0
    6.1741    5.5940   -2.0771 H   0  0  0  0  0  0
    5.9779    3.8646   -2.3687 H   0  0  0  0  0  0
    3.8758    6.4996    0.2769 H   0  0  0  0  0  0
    3.1029    7.0343   -2.2529 H   0  0  0  0  0  0
    3.9276   -2.2918    0.3334 H   0  0  0  0  0  0
   -1.4474    1.2131    2.1251 H   0  0  0  0  0  0
   -1.5653    3.1521   -2.4074 H   0  0  0  0  0  0
   -0.1516    1.2550   -1.9526 H   0  0  0  0  0  0
   -3.6655    6.3559    0.2056 H   0  0  0  0  0  0
   -2.4980    5.5109    1.1695 H   0  0  0  0  0  0
   -3.6552    4.0933   -2.6161 H   0  0  0  0  0  0
   -4.3360    5.5420   -1.9532 H   0  0  0  0  0  0
   -3.5311    2.3696    2.6344 H   0  0  0  0  0  0
   -4.0900    3.7258    1.6982 H   0  0  0  0  0  0
   -2.6414    3.8867    2.7225 H   0  0  0  0  0  0
   -0.6770    6.0424   -0.5393 H   0  0  0  0  0  0
   -1.4387    7.5065    0.1292 H   0  0  0  0  0  0
   -2.6864    6.1969   -3.6799 H   0  0  0  0  0  0
   -1.3870    5.2928   -2.8739 H   0  0  0  0  0  0
   -0.0086    7.2885   -2.5689 H   0  0  0  0  0  0
   -0.7529    8.7742   -1.8645 H   0  0  0  0  0  0
   -1.2600    8.2058   -3.4917 H   0  0  0  0  0  0
   -2.8683    7.6131   -1.7828 H   0  0  0  0  0  0
  1 19  1  0  0  0
  2 18  2  0  0  0
  3 10  1  0  0  0
  3 17  1  0  0  0
  3 34  1  0  0  0
  4 17  2  0  0  0
  4 20  1  0  0  0
  5 20  1  0  0  0
  5 22  1  0  0  0
  5 35  1  0  0  0
  6 21  1  0  0  0
  6 28  1  0  0  0
  6 29  1  0  0  0
  7 20  2  0  0  0
  7 24  1  0  0  0
  8 18  1  0  0  0
  8 36  1  0  0  0
  8 37  1  0  0  0
  9 31  1  0  0  0
  9 32  1  0  0  0
  9 33  1  0  0  0
  9 64  1  0  0  0
 10 11  1  0  0  0
 10 12  1  0  0  0
 10 38  1  0  0  0
 11 13  1  0  0  0
 11 18  1  0  0  0
 11 39  1  0  0  0
 12 14  1  0  0  0
 12 15  1  0  0  0
 12 40  1  0  0  0
 13 14  1  0  0  0
 13 16  1  0  0  0
 13 41  1  0  0  0
 14 42  1  0  0  0
 14 43  1  0  0  0
 15 16  2  0  0  0
 15 44  1  0  0  0
 16 45  1  0  0  0
 17 19  1  0  0  0
 19 24  2  0  0  0
 21 23  2  0  0  0
 21 26  1  0  0  0
 22 25  2  0  0  0
 22 27  1  0  0  0
 23 25  1  0  0  0
 23 30  1  0  0  0
 24 46  1  0  0  0
 25 47  1  0  0  0
 26 27  2  0  0  0
 26 48  1  0  0  0
 27 49  1  0  0  0
 28 31  1  0  0  0
 28 50  1  0  0  0
 28 51  1  0  0  0
 29 32  1  0  0  0
 29 52  1  0  0  0
 29 53  1  0  0  0
 30 54  1  0  0  0
 30 55  1  0  0  0
 30 56  1  0  0  0
 31 57  1  0  0  0
 31 58  1  0  0  0
 32 59  1  0  0  0
 32 60  1  0  0  0
 33 61  1  0  0  0
 33 62  1  0  0  0
 33 63  1  0  0  0
M  CHG  1   9   1
M  END
> <chembl_id>
CHEMBL1967878

> <chembl_pref_name>
CENISERTIB

> <s_m_source_file>
sdf/actives_sanitized.sdf

> <i_m_source_file_index>
76

> <i_lp_mmshare_version>
49012

> <i_m_ct_stereo_status>
1

> <i_f3d_flags>
0

> <s_epik_input>
W0NIXTE9W0NIXVtDQEBIXShbQ0gyXTIpW0NASF0oQyg9TylbTkgyXSlbQ0BIXShbQ0BIXTEyKVtOSF1jM25jKG5bY0hdYzNGKVtOSF1jKFtjSF1bY0hdNClbY0hdYyhbQ0gzXSljNE41W0NIMl1bQ0gyXU4oW0NIM10pW0NIMl1bQ0gyXTU=

> <s_epik_cmdline>
J2VwaWtfcHl0aG9uJywgJy1waHQnLCAnMC41JywgJy1waCcsICc3LjUnLCAnLW50JywgJy1tYScsICcyMDAnLCAnLWltYWUnLCAnPGluZmlsZS5tYWU+JywgJy1vbWFlJywgJzxvdXRmaWxlLm1hZT4n

> <r_lp_tautomer_probability>
0.999999624730965

> <r_epik_Ionization_Penalty>
  0.1847

> <r_epik_Ionization_Penalty_Charging>
  0.1844

> <r_epik_Ionization_Penalty_Neutral>
  0.0002

> <r_epik_State_Penalty>
  0.3968

> <r_epik_Charging_Adjusted_Penalty>
0.581271705242131

> <i_epik_Tot_Q>
1

> <i_epik_Tot_abs_Q>
1

> <s_lp_Force_Field>
OPLS3e

> <r_lp_Energy>
73.066121

> <b_lp_Chiralities_Consistent>
1

> <s_lp_Variant>
sdf/actives_sanitized.sdf:76-1

$$$$
sdf/actives_sanitized.sdf:77
                    3D
 Schrodinger Suite 2020-1.
 42 45  0  0  1  0            999 V2000
   -0.6783    3.7873   -0.0669 F   0  0  0  0  0  0
    3.8753    2.2911    0.1213 N   0  0  0  0  0  0
    4.1131    4.3776    0.9887 N   0  0  0  0  0  0
    1.8793    1.0280   -0.0849 N   0  0  0  0  0  0
   -0.1696   -0.2283   -0.2813 N   0  0  0  0  0  0
    3.3256   -1.3174   -0.5887 N   0  0  0  0  0  0
    9.3443    1.9970   -2.5500 N   0  0  0  0  0  0
    5.1463    2.7279   -0.2459 C   0  0  0  0  0  0
    5.2530    4.0267    0.3254 C   0  0  0  0  0  0
    3.2419    1.0442   -0.1159 C   0  0  0  0  0  0
    3.3330    3.3427    0.8406 C   0  0  0  0  0  0
    6.1925    2.1803   -1.0059 C   0  0  0  0  0  0
    7.3524    2.9507   -1.1527 C   0  0  0  0  0  0
    6.4269    4.7747    0.1647 C   0  0  0  0  0  0
    1.2353   -0.1523   -0.3053 C   0  0  0  0  0  0
    3.9569   -0.1354   -0.3662 C   0  0  0  0  0  0
    7.4682    4.2176   -0.5750 C   0  0  0  0  0  0
   -1.0436    0.9409   -0.1280 C   0  0  2  0  0  0
    1.9675   -1.3158   -0.5603 C   0  0  0  0  0  0
   -0.7714    1.7331    1.1587 C   0  0  0  0  0  0
   -0.6017    3.1246    1.1105 C   0  0  0  0  0  0
    8.4623    2.4194   -1.9312 C   0  0  0  0  0  0
   -0.6907    1.0799    2.3970 C   0  0  0  0  0  0
   -0.3466    3.8436    2.2792 C   0  0  0  0  0  0
   -2.5257    0.5431   -0.2265 C   0  0  0  0  0  0
   -0.4331    1.8009    3.5627 C   0  0  0  0  0  0
   -0.2600    3.1829    3.5039 C   0  0  0  0  0  0
   -0.5834   -1.0488   -0.6998 H   0  0  0  0  0  0
    2.3399    3.2543    1.2564 H   0  0  0  0  0  0
    6.1143    1.2142   -1.4808 H   0  0  0  0  0  0
    6.5249    5.7596    0.5973 H   0  0  0  0  0  0
    5.0334   -0.1810   -0.3463 H   0  0  0  0  0  0
    8.3750    4.7933   -0.7022 H   0  0  0  0  0  0
   -0.8309    1.5835   -0.9837 H   0  0  0  0  0  0
    1.4806   -2.2636   -0.7388 H   0  0  0  0  0  0
   -0.8228    0.0093    2.4561 H   0  0  0  0  0  0
   -0.2130    4.9145    2.2348 H   0  0  0  0  0  0
   -3.1722    1.4197   -0.1692 H   0  0  0  0  0  0
   -2.8157   -0.1346    0.5777 H   0  0  0  0  0  0
   -2.7392    0.0446   -1.1728 H   0  0  0  0  0  0
   -0.3679    1.2882    4.5112 H   0  0  0  0  0  0
   -0.0605    3.7414    4.4066 H   0  0  0  0  0  0
  1 21  1  0  0  0
  2  8  1  0  0  0
  2 10  1  0  0  0
  2 11  1  0  0  0
  3  9  1  0  0  0
  3 11  2  0  0  0
  4 10  2  0  0  0
  4 15  1  0  0  0
  5 15  1  0  0  0
  5 18  1  0  0  0
  5 28  1  0  0  0
  6 16  2  0  0  0
  6 19  1  0  0  0
  7 22  3  0  0  0
  8  9  2  0  0  0
  8 12  1  0  0  0
  9 14  1  0  0  0
 10 16  1  0  0  0
 11 29  1  0  0  0
 12 13  2  0  0  0
 12 30  1  0  0  0
 13 17  1  0  0  0
 13 22  1  0  0  0
 14 17  2  0  0  0
 14 31  1  0  0  0
 15 19  2  0  0  0
 16 32  1  0  0  0
 17 33  1  0  0  0
 18 20  1  0  0  0
 18 25  1  0  0  0
 18 34  1  0  0  0
 19 35  1  0  0  0
 20 21  2  0  0  0
 20 23  1  0  0  0
 21 24  1  0  0  0
 23 26  2  0  0  0
 23 36  1  0  0  0
 24 27  2  0  0  0
 24 37  1  0  0  0
 25 38  1  0  0  0
 25 39  1  0  0  0
 25 40  1  0  0  0
 26 27  1  0  0  0
 26 41  1  0  0  0
 27 42  1  0  0  0
M  END
> <chembl_id>
CHEMBL1977138

> <chembl_pref_name>
None

> <s_m_source_file>
sdf/actives_sanitized.sdf

> <i_m_source_file_index>
77

> <i_lp_mmshare_version>
49012

> <i_m_ct_stereo_status>
1

> <i_f3d_flags>
0

> <s_epik_input>
W2NIXTFbY0hdW2NIXVtjSF1jKEYpYzFbQ0BIXShbQ0gzXSlbTkhdYyhbY0hdbltjSF0yKW5jMi1uM1tjSF1uYyhjMzQpW2NIXVtjSF1jKFtjSF00KUMjTg==

> <s_epik_cmdline>
J2VwaWtfcHl0aG9uJywgJy1waHQnLCAnMC41JywgJy1waCcsICc3LjUnLCAnLW50JywgJy1tYScsICcyMDAnLCAnLWltYWUnLCAnPGluZmlsZS5tYWU+JywgJy1vbWFlJywgJzxvdXRmaWxlLm1hZT4n

> <r_lp_tautomer_probability>
1

> <r_epik_Ionization_Penalty>
  0.0010

> <r_epik_Ionization_Penalty_Charging>
  0.0000

> <r_epik_Ionization_Penalty_Neutral>
  0.0010

> <r_epik_State_Penalty>
 -0.0000

> <r_epik_Charging_Adjusted_Penalty>
0

> <i_epik_Tot_Q>
0

> <i_epik_Tot_abs_Q>
0

> <s_lp_Force_Field>
OPLS3e

> <r_lp_Energy>
39.315137

> <b_lp_Chiralities_Consistent>
1

> <s_lp_Variant>
sdf/actives_sanitized.sdf:77-1

$$$$
sdf/actives_sanitized.sdf:78
                    3D
 Schrodinger Suite 2020-1.
 64 68  0  0  1  0            999 V2000
   -0.2123    2.9119   -0.5053 S   0  0  0  0  0  0
    6.0076   -0.3453    1.2471 O   0  0  0  0  0  0
   -9.0577    1.8812    2.0601 O   0  0  0  0  0  0
  -15.4660    2.3332    3.3048 O   0  0  0  0  0  0
    7.3580    1.6361    2.9458 O   0  0  0  0  0  0
   -1.7396   -1.3326   -0.0690 N   0  0  0  0  0  0
    3.8170    0.7783   -0.3759 N   0  0  0  0  0  0
   -3.9202   -0.5522    0.0476 N   0  0  0  0  0  0
    3.8213   -0.4023   -1.0065 N   0  0  0  0  0  0
   -8.3408    3.3108    0.4198 N   0  0  0  0  0  0
  -10.4765    3.3200    0.9838 N   0  0  0  0  0  0
   -2.0805    1.0723   -0.1640 C   0  0  0  0  0  0
   -0.6582    1.2203   -0.3140 C   0  0  0  0  0  0
   -2.7641    2.3430   -0.1613 C   0  0  0  0  0  0
    0.2038    0.0998   -0.3197 C   0  0  0  0  0  0
   -2.5603   -0.2575   -0.0563 C   0  0  0  0  0  0
    1.6893    0.1785   -0.4538 C   0  0  0  0  0  0
   -4.2232    2.5814    0.0189 C   0  0  0  0  0  0
   -1.8761    3.3813   -0.3565 C   0  0  0  0  0  0
   -0.4087   -1.1463   -0.1939 C   0  0  0  0  0  0
    2.5568    1.1623   -0.0003 C   0  0  0  0  0  0
    2.5559   -0.7519   -1.0553 C   0  0  0  0  0  0
   -4.9548    3.2059   -0.9929 C   0  0  0  0  0  0
   -4.8561    2.2083    1.2063 C   0  0  0  0  0  0
   -6.9615    3.0390    0.3470 C   0  0  0  0  0  0
   -6.3178    3.4354   -0.8276 C   0  0  0  0  0  0
   -6.2194    2.4345    1.3739 C   0  0  0  0  0  0
    5.0766    1.4606   -0.0918 C   0  0  0  0  0  0
    5.6818    1.0348    1.2678 C   0  0  2  0  0  0
   -9.2708    2.7686    1.2325 C   0  0  0  0  0  0
  -11.7110    3.0510    1.6039 C   0  0  0  0  0  0
    6.9500    1.8473    1.6081 C   0  0  0  0  0  0
  -12.8553    3.3818    0.8764 C   0  0  0  0  0  0
  -11.8422    2.5137    2.8930 C   0  0  0  0  0  0
  -14.2549    2.5992    2.6949 C   0  0  0  0  0  0
  -14.1196    3.1541    1.4129 C   0  0  0  0  0  0
  -13.1083    2.2891    3.4262 C   0  0  0  0  0  0
  -16.6731    2.6053    2.6009 C   0  0  0  0  0  0
    6.6630   -0.4959    0.5621 H   0  0  0  0  0  0
    8.1534    2.1484    3.1088 H   0  0  0  0  0  0
   -4.5947    0.2001    0.0573 H   0  0  0  0  0  0
   -4.2135   -1.5166    0.1128 H   0  0  0  0  0  0
   -8.6768    3.9590   -0.2772 H   0  0  0  0  0  0
  -10.5291    3.9542    0.2004 H   0  0  0  0  0  0
   -2.1231    4.4320   -0.4057 H   0  0  0  0  0  0
    0.1822   -2.0506   -0.1876 H   0  0  0  0  0  0
    2.3966    2.0799    0.5464 H   0  0  0  0  0  0
    2.2561   -1.6774   -1.5247 H   0  0  0  0  0  0
   -4.4707    3.5092   -1.9101 H   0  0  0  0  0  0
   -4.2923    1.7428    2.0021 H   0  0  0  0  0  0
   -6.8700    3.9151   -1.6232 H   0  0  0  0  0  0
   -6.6697    2.1451    2.3102 H   0  0  0  0  0  0
    5.7738    1.2799   -0.9126 H   0  0  0  0  0  0
    4.8739    2.5327   -0.0937 H   0  0  0  0  0  0
    4.9397    1.1850    2.0544 H   0  0  0  0  0  0
    6.7610    2.9147    1.4884 H   0  0  0  0  0  0
    7.7735    1.5948    0.9387 H   0  0  0  0  0  0
  -12.7733    3.8092   -0.1130 H   0  0  0  0  0  0
  -10.9830    2.2767    3.5009 H   0  0  0  0  0  0
  -14.9825    3.4146    0.8191 H   0  0  0  0  0  0
  -13.1994    1.8719    4.4185 H   0  0  0  0  0  0
  -17.5228    2.3196    3.2206 H   0  0  0  0  0  0
  -16.7343    2.0327    1.6742 H   0  0  0  0  0  0
  -16.7729    3.6676    2.3732 H   0  0  0  0  0  0
  1 13  1  0  0  0
  1 19  1  0  0  0
  2 29  1  0  0  0
  2 39  1  0  0  0
  3 30  2  0  0  0
  4 35  1  0  0  0
  4 38  1  0  0  0
  5 32  1  0  0  0
  5 40  1  0  0  0
  6 16  2  0  0  0
  6 20  1  0  0  0
  7  9  1  0  0  0
  7 21  1  0  0  0
  7 28  1  0  0  0
  8 16  1  0  0  0
  8 41  1  0  0  0
  8 42  1  0  0  0
  9 22  2  0  0  0
 10 25  1  0  0  0
 10 30  1  0  0  0
 10 43  1  0  0  0
 11 30  1  0  0  0
 11 31  1  0  0  0
 11 44  1  0  0  0
 12 13  2  0  0  0
 12 14  1  0  0  0
 12 16  1  0  0  0
 13 15  1  0  0  0
 14 18  1  0  0  0
 14 19  2  0  0  0
 15 17  1  0  0  0
 15 20  2  0  0  0
 17 21  2  0  0  0
 17 22  1  0  0  0
 18 23  2  0  0  0
 18 24  1  0  0  0
 19 45  1  0  0  0
 20 46  1  0  0  0
 21 47  1  0  0  0
 22 48  1  0  0  0
 23 26  1  0  0  0
 23 49  1  0  0  0
 24 27  2  0  0  0
 24 50  1  0  0  0
 25 26  2  0  0  0
 25 27  1  0  0  0
 26 51  1  0  0  0
 27 52  1  0  0  0
 28 29  1  0  0  0
 28 53  1  0  0  0
 28 54  1  0  0  0
 29 32  1  0  0  0
 29 55  1  0  0  0
 31 33  2  0  0  0
 31 34  1  0  0  0
 32 56  1  0  0  0
 32 57  1  0  0  0
 33 36  1  0  0  0
 33 58  1  0  0  0
 34 37  2  0  0  0
 34 59  1  0  0  0
 35 36  2  0  0  0
 35 37  1  0  0  0
 36 60  1  0  0  0
 37 61  1  0  0  0
 38 62  1  0  0  0
 38 63  1  0  0  0
 38 64  1  0  0  0
M  END
> <chembl_id>
CHEMBL1965170

> <chembl_pref_name>
None

> <s_m_source_file>
sdf/actives_sanitized.sdf

> <i_m_source_file_index>
78

> <i_lp_mmshare_version>
49012

> <i_m_ct_stereo_status>
1

> <i_f3d_flags>
0

> <s_epik_input>
W09IXVtDSDJdW0NASF0oW09IXSlbQ0gyXW4xbltjSF1jKFtjSF0xKS1jKFtjSF1uYzJbTkgyXSljKGMyMylzW2NIXWMzLWM0W2NIXVtjSF1jKFtjSF1bY0hdNClbTkhdQyg9TylbTkhdYzVbY0hdW2NIXWMoT1tDSDNdKVtjSF1bY0hdNQ==

> <s_epik_cmdline>
J2VwaWtfcHl0aG9uJywgJy1waHQnLCAnMC41JywgJy1waCcsICc3LjUnLCAnLW50JywgJy1tYScsICcyMDAnLCAnLWltYWUnLCAnPGluZmlsZS5tYWU+JywgJy1vbWFlJywgJzxvdXRmaWxlLm1hZT4n

> <r_lp_tautomer_probability>
1

> <r_epik_Ionization_Penalty>
  0.1173

> <r_epik_Ionization_Penalty_Charging>
  0.0000

> <r_epik_Ionization_Penalty_Neutral>
  0.1173

> <r_epik_State_Penalty>
  0.1069

> <r_epik_Charging_Adjusted_Penalty>
0.106864179686304

> <i_epik_Tot_Q>
0

> <i_epik_Tot_abs_Q>
0

> <s_lp_Force_Field>
OPLS3e

> <r_lp_Energy>
54.493671

> <b_lp_Chiralities_Consistent>
1

> <s_lp_Variant>
sdf/actives_sanitized.sdf:78-1

$$$$
sdf/actives_sanitized.sdf:79
                    3D
 Schrodinger Suite 2020-1.
 58 61  0  0  1  0            999 V2000
   -1.7037   -1.2895   -0.6423 S   0  0  0  0  0  0
   11.6467   -0.6633    8.5325 O   0  0  0  0  0  0
    1.5440    0.0199    1.3840 N   0  0  0  0  0  0
   -2.0903    1.2432   -0.6494 N   0  0  0  0  0  0
    8.5724    0.3082    5.0012 N   0  0  0  0  0  0
    3.4852    0.4778    2.5944 N   0  0  0  0  0  0
    2.9721   -1.7981    2.0566 N   0  0  0  0  0  0
   -3.8048    0.0512   -1.7451 N   0  0  0  0  0  0
   11.0872   -0.0094    6.4223 N   0  0  0  0  0  0
   -0.5176   -0.2642    0.1358 C   0  0  0  0  0  0
    0.6919   -0.8637    0.7933 C   0  0  0  0  0  0
   -0.9496    1.0685   -0.0041 C   0  0  0  0  0  0
   -2.6225    0.1218   -1.0509 C   0  0  0  0  0  0
    2.6551   -0.4769    1.9865 C   0  0  0  0  0  0
    0.9512   -2.2419    0.8151 C   0  0  0  0  0  0
    7.3057    0.3215    4.4026 C   0  0  0  0  0  0
    4.7606    0.3868    3.1782 C   0  0  0  0  0  0
    2.1117   -2.6649    1.4646 C   0  0  0  0  0  0
    6.3637    1.3087    4.7344 C   0  0  0  0  0  0
    6.9482   -0.6155    3.4179 C   0  0  0  0  0  0
    5.1095    1.3414    4.1311 C   0  0  0  0  0  0
    5.6944   -0.5863    2.8138 C   0  0  0  0  0  0
   -0.2817    2.3380    0.4887 C   0  0  0  0  0  0
    9.6397   -0.5978    4.5317 C   0  0  0  0  0  0
    8.7354    0.6740    6.4233 C   0  0  0  0  0  0
   11.0796   -0.2561    4.9770 C   0  0  0  0  0  0
   10.1668    1.0384    6.8749 C   0  0  0  0  0  0
   11.7493   -0.7965    7.3118 C   0  0  0  0  0  0
   -4.5265   -1.1509   -2.1372 C   0  0  0  0  0  0
   12.7530   -1.8346    6.7987 C   0  0  0  0  0  0
   -5.3851   -1.7320   -1.0062 C   0  0  0  0  0  0
    3.1012    1.4116    2.5872 H   0  0  0  0  0  0
   -4.3547    0.8897   -1.8690 H   0  0  0  0  0  0
    0.2910   -2.9619    0.3555 H   0  0  0  0  0  0
    2.3657   -3.7132    1.5183 H   0  0  0  0  0  0
    6.5885    2.0846    5.4491 H   0  0  0  0  0  0
    7.6284   -1.3942    3.1087 H   0  0  0  0  0  0
    4.4105    2.1167    4.4112 H   0  0  0  0  0  0
    5.4722   -1.3198    2.0541 H   0  0  0  0  0  0
    0.7486    2.4068    0.1393 H   0  0  0  0  0  0
   -0.2524    2.3717    1.5781 H   0  0  0  0  0  0
   -0.7807    3.2510    0.1590 H   0  0  0  0  0  0
    9.3991   -1.5767    4.9502 H   0  0  0  0  0  0
    9.6308   -0.6630    3.4436 H   0  0  0  0  0  0
    8.0671    1.4754    6.7296 H   0  0  0  0  0  0
    8.4492   -0.2211    6.9787 H   0  0  0  0  0  0
   11.4002    0.6561    4.4725 H   0  0  0  0  0  0
   11.7629   -1.0413    4.6562 H   0  0  0  0  0  0
   10.1919    1.1919    7.9547 H   0  0  0  0  0  0
   10.4581    1.9862    6.4211 H   0  0  0  0  0  0
   -5.1564   -0.9033   -2.9921 H   0  0  0  0  0  0
   -3.8201   -1.9010   -2.4948 H   0  0  0  0  0  0
   12.2367   -2.6422    6.2790 H   0  0  0  0  0  0
   13.3115   -2.2723    7.6268 H   0  0  0  0  0  0
   13.4728   -1.3780    6.1187 H   0  0  0  0  0  0
   -5.9184   -2.6202   -1.3454 H   0  0  0  0  0  0
   -6.1291   -1.0128   -0.6616 H   0  0  0  0  0  0
   -4.7742   -2.0229   -0.1506 H   0  0  0  0  0  0
  1 10  1  0  0  0
  1 13  1  0  0  0
  2 28  2  0  0  0
  3 11  2  0  0  0
  3 14  1  0  0  0
  4 12  1  0  0  0
  4 13  2  0  0  0
  5 16  1  0  0  0
  5 24  1  0  0  0
  5 25  1  0  0  0
  6 14  1  0  0  0
  6 17  1  0  0  0
  6 32  1  0  0  0
  7 14  2  0  0  0
  7 18  1  0  0  0
  8 13  1  0  0  0
  8 29  1  0  0  0
  8 33  1  0  0  0
  9 26  1  0  0  0
  9 27  1  0  0  0
  9 28  1  0  0  0
 10 11  1  0  0  0
 10 12  2  0  0  0
 11 15  1  0  0  0
 12 23  1  0  0  0
 15 18  2  0  0  0
 15 34  1  0  0  0
 16 19  2  0  0  0
 16 20  1  0  0  0
 17 21  2  0  0  0
 17 22  1  0  0  0
 18 35  1  0  0  0
 19 21  1  0  0  0
 19 36  1  0  0  0
 20 22  2  0  0  0
 20 37  1  0  0  0
 21 38  1  0  0  0
 22 39  1  0  0  0
 23 40  1  0  0  0
 23 41  1  0  0  0
 23 42  1  0  0  0
 24 26  1  0  0  0
 24 43  1  0  0  0
 24 44  1  0  0  0
 25 27  1  0  0  0
 25 45  1  0  0  0
 25 46  1  0  0  0
 26 47  1  0  0  0
 26 48  1  0  0  0
 27 49  1  0  0  0
 27 50  1  0  0  0
 28 30  1  0  0  0
 29 31  1  0  0  0
 29 51  1  0  0  0
 29 52  1  0  0  0
 30 53  1  0  0  0
 30 54  1  0  0  0
 30 55  1  0  0  0
 31 56  1  0  0  0
 31 57  1  0  0  0
 31 58  1  0  0  0
M  END
> <chembl_id>
CHEMBL1983715

> <chembl_pref_name>
None

> <s_m_source_file>
sdf/actives_sanitized.sdf

> <i_m_source_file_index>
79

> <i_lp_mmshare_version>
49012

> <i_m_ct_stereo_status>
1

> <i_f3d_flags>
0

> <s_epik_input>
W0NIM11jMW5jKFtOSF1bQ0gyXVtDSDNdKXNjMS1jMm5jKG5bY0hdW2NIXTIpW05IXWMoW2NIXVtjSF0zKVtjSF1bY0hdYzNONFtDSDJdW0NIMl1OKFtDSDJdW0NIMl00KUMoPU8pW0NIM10=

> <s_epik_cmdline>
J2VwaWtfcHl0aG9uJywgJy1waHQnLCAnMC41JywgJy1waCcsICc3LjUnLCAnLW50JywgJy1tYScsICcyMDAnLCAnLWltYWUnLCAnPGluZmlsZS5tYWU+JywgJy1vbWFlJywgJzxvdXRmaWxlLm1hZT4n

> <r_lp_tautomer_probability>
1

> <r_epik_Ionization_Penalty>
  0.0078

> <r_epik_Ionization_Penalty_Charging>
  0.0000

> <r_epik_Ionization_Penalty_Neutral>
  0.0078

> <r_epik_State_Penalty>
 -0.0000

> <r_epik_Charging_Adjusted_Penalty>
0

> <i_epik_Tot_Q>
0

> <i_epik_Tot_abs_Q>
0

> <s_lp_Force_Field>
OPLS3e

> <r_lp_Energy>
55.342659

> <b_lp_Chiralities_Consistent>
1

> <s_lp_Variant>
sdf/actives_sanitized.sdf:79-1

$$$$
sdf/actives_sanitized.sdf:80
                    3D
 Schrodinger Suite 2020-1.
 56 60  0  0  1  0            999 V2000
   -4.1023    0.1096   -0.7103 N   0  0  0  0  0  0
   -2.7373   -0.0188   -0.4524 C   0  0  0  0  0  0
   -2.0174    1.1168   -0.6001 N   0  0  0  0  0  0
   -0.6824    1.0834   -0.4048 C   0  0  0  0  0  0
    0.0350   -0.0640   -0.0698 C   0  0  0  0  0  0
    1.5161    0.0181    0.0993 C   0  0  0  0  0  0
    2.2706    1.0900    0.6074 C   0  0  0  0  0  0
    3.5635    0.8586    0.6345 N   0  0  0  0  0  0
    3.6945   -0.3709    0.1197 N   0  0  0  0  0  0
    5.0163   -0.9818    0.0107 C   0  0  0  0  0  0
    5.5593   -1.3345    1.4083 C   0  0  0  0  0  0
    6.8208   -1.9596    1.3087 O   0  0  0  0  0  0
    2.4856   -0.9252   -0.2117 C   0  0  0  0  0  0
   -0.7213   -1.2470    0.0905 C   0  0  0  0  0  0
   -0.1217   -2.8447    0.5183 S   0  0  0  0  0  0
   -1.7343   -3.4804    0.4518 C   0  0  0  0  0  0
   -2.7195   -2.5594    0.1574 C   0  0  0  0  0  0
   -4.1590   -2.9452    0.1264 C   0  0  0  0  0  0
   -5.0739   -2.3243    0.9791 C   0  0  0  0  0  0
   -6.4110   -2.7109    0.9698 C   0  0  0  0  0  0
   -6.8423   -3.7331    0.1215 C   0  0  0  0  0  0
   -8.2104   -4.0588    0.1863 N   0  0  0  0  0  0
   -8.8335   -5.1854   -0.2168 C   0  0  0  0  0  0
   -8.2688   -6.1741   -0.6852 O   0  0  0  0  0  0
  -10.1616   -5.0719   -0.0095 N   0  0  0  0  0  0
  -11.1970   -5.9833   -0.2945 C   0  0  0  0  0  0
  -11.0551   -7.1511   -1.0659 C   0  0  0  0  0  0
  -12.1534   -7.9816   -1.2931 C   0  0  0  0  0  0
  -13.4002   -7.6566   -0.7611 C   0  0  0  0  0  0
  -13.5518   -6.4969   -0.0028 C   0  0  0  0  0  0
  -14.7615   -6.1776    0.5098 F   0  0  0  0  0  0
  -12.4559   -5.6648    0.2267 C   0  0  0  0  0  0
   -5.9249   -4.3478   -0.7452 C   0  0  0  0  0  0
   -4.5889   -3.9560   -0.7360 C   0  0  0  0  0  0
   -2.1492   -1.2549   -0.0816 C   0  0  0  0  0  0
   -4.7023   -0.6997   -0.6343 H   0  0  0  0  0  0
   -4.4703    1.0082   -0.9881 H   0  0  0  0  0  0
   -0.1752    2.0270   -0.5455 H   0  0  0  0  0  0
    1.8681    2.0271    0.9634 H   0  0  0  0  0  0
    4.9030   -1.8762   -0.6047 H   0  0  0  0  0  0
    5.6548   -0.2533   -0.4927 H   0  0  0  0  0  0
    5.6262   -0.4458    2.0374 H   0  0  0  0  0  0
    4.8607   -1.9862    1.9350 H   0  0  0  0  0  0
    7.1299   -2.1682    2.1936 H   0  0  0  0  0  0
    2.4267   -1.9178   -0.6330 H   0  0  0  0  0  0
   -1.8847   -4.5285    0.6670 H   0  0  0  0  0  0
   -4.7493   -1.5452    1.6539 H   0  0  0  0  0  0
   -7.1049   -2.2194    1.6371 H   0  0  0  0  0  0
   -8.7824   -3.3718    0.6549 H   0  0  0  0  0  0
  -10.4710   -4.2231    0.4401 H   0  0  0  0  0  0
  -10.1150   -7.4363   -1.5094 H   0  0  0  0  0  0
  -12.0378   -8.8770   -1.8858 H   0  0  0  0  0  0
  -14.2484   -8.3010   -0.9394 H   0  0  0  0  0  0
  -12.5936   -4.7701    0.8174 H   0  0  0  0  0  0
   -6.2233   -5.1194   -1.4377 H   0  0  0  0  0  0
   -3.8889   -4.4402   -1.4018 H   0  0  0  0  0  0
  1  2  1  0  0  0
  1 36  1  0  0  0
  1 37  1  0  0  0
  2  3  2  0  0  0
  2 35  1  0  0  0
  3  4  1  0  0  0
  4  5  2  0  0  0
  4 38  1  0  0  0
  5  6  1  0  0  0
  5 14  1  0  0  0
  6  7  1  0  0  0
  6 13  2  0  0  0
  7  8  2  0  0  0
  7 39  1  0  0  0
  8  9  1  0  0  0
  9 10  1  0  0  0
  9 13  1  0  0  0
 10 11  1  0  0  0
 10 40  1  0  0  0
 10 41  1  0  0  0
 11 12  1  0  0  0
 11 42  1  0  0  0
 11 43  1  0  0  0
 12 44  1  0  0  0
 13 45  1  0  0  0
 14 15  1  0  0  0
 14 35  2  0  0  0
 15 16  1  0  0  0
 16 17  2  0  0  0
 16 46  1  0  0  0
 17 18  1  0  0  0
 17 35  1  0  0  0
 18 19  2  0  0  0
 18 34  1  0  0  0
 19 20  1  0  0  0
 19 47  1  0  0  0
 20 21  2  0  0  0
 20 48  1  0  0  0
 21 22  1  0  0  0
 21 33  1  0  0  0
 22 23  1  0  0  0
 22 49  1  0  0  0
 23 24  2  0  0  0
 23 25  1  0  0  0
 25 26  1  0  0  0
 25 50  1  0  0  0
 26 27  2  0  0  0
 26 32  1  0  0  0
 27 28  1  0  0  0
 27 51  1  0  0  0
 28 29  2  0  0  0
 28 52  1  0  0  0
 29 30  1  0  0  0
 29 53  1  0  0  0
 30 31  1  0  0  0
 30 32  2  0  0  0
 32 54  1  0  0  0
 33 34  2  0  0  0
 33 55  1  0  0  0
 34 56  1  0  0  0
M  END
> <chembl_id>
CHEMBL1980297

> <chembl_pref_name>
ILORASERTIB

> <s_m_source_file>
sdf/actives_sanitized.sdf

> <i_m_source_file_index>
80

> <i_lp_mmshare_version>
49012

> <i_m_ct_stereo_status>
1

> <i_f3d_flags>
0

> <s_epik_input>
W09IXVtDSDJdW0NIMl1uKFtjSF0xKW5bY0hdYzEtYzJbY0hdbmMoW05IMl0pYyhjMjMpYyhbY0hdczMpLWM0W2NIXVtjSF1jKFtjSF1bY0hdNClbTkhdQyg9TylbTkhdYzVbY0hdW2NIXVtjSF1jKEYpW2NIXTU=

> <s_epik_cmdline>
J2VwaWtfcHl0aG9uJywgJy1waHQnLCAnMC41JywgJy1waCcsICc3LjUnLCAnLW50JywgJy1tYScsICcyMDAnLCAnLWltYWUnLCAnPGluZmlsZS5tYWU+JywgJy1vbWFlJywgJzxvdXRmaWxlLm1hZT4n

> <r_lp_tautomer_probability>
1

> <r_epik_Ionization_Penalty>
  0.1174

> <r_epik_Ionization_Penalty_Charging>
  0.0000

> <r_epik_Ionization_Penalty_Neutral>
  0.1174

> <r_epik_State_Penalty>
  0.1069

> <r_epik_Charging_Adjusted_Penalty>
0.106864179686305

> <i_epik_Tot_Q>
0

> <i_epik_Tot_abs_Q>
0

> <s_lp_Force_Field>
OPLS3e

> <r_lp_Energy>
52.743105

> <b_lp_Chiralities_Consistent>
1

> <s_lp_Variant>
sdf/actives_sanitized.sdf:80-1

$$$$
sdf/actives_sanitized.sdf:81
                    3D
 Schrodinger Suite 2020-1.
 40 41  0  0  1  0            999 V2000
    6.3422   -0.2132   -0.9508 O   0  0  0  0  0  0
    4.0449   -2.2466   -1.2569 O   0  0  0  0  0  0
   -0.6412    1.8871    0.9681 O   0  0  0  0  0  0
    6.3481   -0.4051    1.3242 N   0  0  0  0  0  0
    0.0035   -0.0160   -0.1369 N   0  0  0  0  0  0
    7.5186    0.4999    3.7768 N   0  3  0  0  0  0
    4.2194   -0.2178    0.0722 C   0  0  0  0  0  0
    5.7285   -0.2868    0.1159 C   0  0  0  0  0  0
    3.4601   -1.1790   -0.6197 C   0  0  0  0  0  0
    1.4078   -0.0155   -0.0276 C   0  0  0  0  0  0
    3.5569    0.8455    0.6992 C   0  0  0  0  0  0
    2.0687   -1.0716   -0.6603 C   0  0  0  0  0  0
    2.1673    0.9471    0.6564 C   0  0  0  0  0  0
    7.8224   -0.3681    1.4197 C   0  0  0  0  0  0
    5.6447   -0.6934    2.5918 C   0  0  0  0  0  0
    8.2172    0.7351    2.4274 C   0  0  0  0  0  0
    5.9939    0.4223    3.5994 C   0  0  0  0  0  0
   -0.9056    0.8640    0.3360 C   0  0  0  0  0  0
   -2.3696    0.5268    0.0110 C   0  0  0  0  0  0
   -3.3664    0.9543    1.1045 C   0  0  0  0  0  0
    3.4099   -2.8149   -1.6986 H   0  0  0  0  0  0
   -0.3679   -0.7983   -0.6556 H   0  0  0  0  0  0
    7.8529   -0.3635    4.1816 H   0  0  0  0  0  0
    4.1170    1.6066    1.2242 H   0  0  0  0  0  0
    1.4986   -1.8214   -1.1916 H   0  0  0  0  0  0
    1.7163    1.7853    1.1618 H   0  0  0  0  0  0
    8.1921   -1.3374    1.7567 H   0  0  0  0  0  0
    8.3005   -0.1739    0.4582 H   0  0  0  0  0  0
    4.5655   -0.7932    2.4805 H   0  0  0  0  0  0
    5.9840   -1.6578    2.9726 H   0  0  0  0  0  0
    7.9493    1.7374    2.0889 H   0  0  0  0  0  0
    9.2843    0.7175    2.6510 H   0  0  0  0  0  0
    5.5980    0.2124    4.5934 H   0  0  0  0  0  0
    5.6486    1.4090    3.2860 H   0  0  0  0  0  0
   -2.6289    1.0224   -0.9253 H   0  0  0  0  0  0
   -2.4788   -0.5440   -0.1714 H   0  0  0  0  0  0
   -4.3796    0.6700    0.8191 H   0  0  0  0  0  0
   -3.3769    2.0358    1.2480 H   0  0  0  0  0  0
   -3.1580    0.4661    2.0577 H   0  0  0  0  0  0
    7.7529    1.2447    4.4183 H   0  0  0  0  0  0
  1  8  2  0  0  0
  2  9  1  0  0  0
  2 21  1  0  0  0
  3 18  2  0  0  0
  4  8  1  0  0  0
  4 14  1  0  0  0
  4 15  1  0  0  0
  5 10  1  0  0  0
  5 18  1  0  0  0
  5 22  1  0  0  0
  6 16  1  0  0  0
  6 17  1  0  0  0
  6 23  1  0  0  0
  6 40  1  0  0  0
  7  8  1  0  0  0
  7  9  2  0  0  0
  7 11  1  0  0  0
  9 12  1  0  0  0
 10 12  2  0  0  0
 10 13  1  0  0  0
 11 13  2  0  0  0
 11 24  1  0  0  0
 12 25  1  0  0  0
 13 26  1  0  0  0
 14 16  1  0  0  0
 14 27  1  0  0  0
 14 28  1  0  0  0
 15 17  1  0  0  0
 15 29  1  0  0  0
 15 30  1  0  0  0
 16 31  1  0  0  0
 16 32  1  0  0  0
 17 33  1  0  0  0
 17 34  1  0  0  0
 18 19  1  0  0  0
 19 20  1  0  0  0
 19 35  1  0  0  0
 19 36  1  0  0  0
 20 37  1  0  0  0
 20 38  1  0  0  0
 20 39  1  0  0  0
M  CHG  1   6   1
M  END
> <chembl_id>
CHEMBL1988141

> <chembl_pref_name>
None

> <s_m_source_file>
sdf/actives_sanitized.sdf

> <i_m_source_file_index>
81

> <i_lp_mmshare_version>
49012

> <i_m_ct_stereo_status>
1

> <i_f3d_flags>
0

> <s_epik_input>
W0NIMl0xW0NIMl1bTkhdW0NIMl1bQ0gyXU4xQyg9TyljMmMoW09IXSlbY0hdYyhbY0hdW2NIXTIpW05IXUMoPU8pW0NIMl1bQ0gzXQ==

> <s_epik_cmdline>
J2VwaWtfcHl0aG9uJywgJy1waHQnLCAnMC41JywgJy1waCcsICc3LjUnLCAnLW50JywgJy1tYScsICcyMDAnLCAnLWltYWUnLCAnPGluZmlsZS5tYWU+JywgJy1vbWFlJywgJzxvdXRmaWxlLm1hZT4n

> <r_lp_tautomer_probability>
0.999999999997365

> <r_epik_Ionization_Penalty>
  0.5622

> <r_epik_Ionization_Penalty_Charging>
  0.1505

> <r_epik_Ionization_Penalty_Neutral>
  0.4117

> <r_epik_State_Penalty>
  0.4950

> <r_epik_Charging_Adjusted_Penalty>
0.64547250050372

> <i_epik_Tot_Q>
1

> <i_epik_Tot_abs_Q>
1

> <s_lp_Force_Field>
OPLS3e

> <r_lp_Energy>
31.933746

> <b_lp_Chiralities_Consistent>
1

> <s_lp_Variant>
sdf/actives_sanitized.sdf:81-1

$$$$
sdf/actives_sanitized.sdf:81
                    3D
 Schrodinger Suite 2020-1.
 39 40  0  0  1  0            999 V2000
    6.3026    0.1419    0.9411 O   0  0  0  0  0  0
    3.9740   -1.8730   -1.2129 O   0  5  0  0  0  0
   -0.6709    2.2990    0.5852 O   0  0  0  0  0  0
    6.3357    0.3373   -1.3346 N   0  0  0  0  0  0
   -0.0312    0.1694    0.0293 N   0  0  0  0  0  0
    7.5125   -0.5481   -3.7918 N   0  3  0  0  0  0
    4.1912    0.1992   -0.1060 C   0  0  0  0  0  0
    5.7029    0.2296   -0.1325 C   0  0  0  0  0  0
    3.4363   -0.8605   -0.6560 C   0  0  0  0  0  0
    1.3741    0.2435    0.0144 C   0  0  0  0  0  0
    3.5190    1.2536    0.5228 C   0  0  0  0  0  0
    2.0408   -0.8244   -0.5904 C   0  0  0  0  0  0
    2.1275    1.2810    0.5829 C   0  0  0  0  0  0
    7.8074    0.2473   -1.4165 C   0  0  0  0  0  0
    5.6483    0.6718   -2.6010 C   0  0  0  0  0  0
    8.1639   -0.8569   -2.4349 C   0  0  0  0  0  0
    5.9887   -0.4115   -3.6483 C   0  0  0  0  0  0
   -0.9397    1.1285    0.3100 C   0  0  0  0  0  0
   -2.4045    0.6643    0.2546 C   0  0  0  0  0  0
   -3.4335    1.8059    0.1501 C   0  0  0  0  0  0
   -0.4010   -0.7243   -0.2592 H   0  0  0  0  0  0
    7.8937    0.3119   -4.1599 H   0  0  0  0  0  0
    4.0729    2.0671    0.9704 H   0  0  0  0  0  0
    1.4670   -1.6373   -1.0155 H   0  0  0  0  0  0
    1.6649    2.1121    1.0904 H   0  0  0  0  0  0
    8.2155    1.2059   -1.7391 H   0  0  0  0  0  0
    8.2694    0.0229   -0.4537 H   0  0  0  0  0  0
    4.5680    0.7650   -2.4941 H   0  0  0  0  0  0
    5.9971    1.6446   -2.9498 H   0  0  0  0  0  0
    7.8265   -1.8483   -2.1268 H   0  0  0  0  0  0
    9.2351   -0.8977   -2.6329 H   0  0  0  0  0  0
    5.6299   -0.1417   -4.6418 H   0  0  0  0  0  0
    5.5957   -1.3969   -3.3943 H   0  0  0  0  0  0
   -2.5393   -0.0147   -0.5890 H   0  0  0  0  0  0
   -2.6085    0.0817    1.1537 H   0  0  0  0  0  0
   -4.4426    1.3967    0.0961 H   0  0  0  0  0  0
   -3.2859    2.4039   -0.7502 H   0  0  0  0  0  0
   -3.4084    2.4576    1.0246 H   0  0  0  0  0  0
    7.7284   -1.2832   -4.4502 H   0  0  0  0  0  0
  1  8  2  0  0  0
  2  9  1  0  0  0
  3 18  2  0  0  0
  4  8  1  0  0  0
  4 14  1  0  0  0
  4 15  1  0  0  0
  5 10  1  0  0  0
  5 18  1  0  0  0
  5 21  1  0  0  0
  6 16  1  0  0  0
  6 17  1  0  0  0
  6 22  1  0  0  0
  6 39  1  0  0  0
  7  8  1  0  0  0
  7  9  2  0  0  0
  7 11  1  0  0  0
  9 12  1  0  0  0
 10 12  2  0  0  0
 10 13  1  0  0  0
 11 13  2  0  0  0
 11 23  1  0  0  0
 12 24  1  0  0  0
 13 25  1  0  0  0
 14 16  1  0  0  0
 14 26  1  0  0  0
 14 27  1  0  0  0
 15 17  1  0  0  0
 15 28  1  0  0  0
 15 29  1  0  0  0
 16 30  1  0  0  0
 16 31  1  0  0  0
 17 32  1  0  0  0
 17 33  1  0  0  0
 18 19  1  0  0  0
 19 20  1  0  0  0
 19 34  1  0  0  0
 19 35  1  0  0  0
 20 36  1  0  0  0
 20 37  1  0  0  0
 20 38  1  0  0  0
M  CHG  2   2  -1   6   1
M  END
> <chembl_id>
CHEMBL1988141

> <chembl_pref_name>
None

> <s_m_source_file>
sdf/actives_sanitized.sdf

> <i_m_source_file_index>
81

> <i_lp_mmshare_version>
49012

> <i_m_ct_stereo_status>
1

> <i_f3d_flags>
0

> <s_epik_input>
W0NIMl0xW0NIMl1bTkhdW0NIMl1bQ0gyXU4xQyg9TyljMmMoW09IXSlbY0hdYyhbY0hdW2NIXTIpW05IXUMoPU8pW0NIMl1bQ0gzXQ==

> <s_epik_cmdline>
J2VwaWtfcHl0aG9uJywgJy1waHQnLCAnMC41JywgJy1waCcsICc3LjUnLCAnLW50JywgJy1tYScsICcyMDAnLCAnLWltYWUnLCAnPGluZmlsZS5tYWU+JywgJy1vbWFlJywgJzxvdXRmaWxlLm1hZT4n

> <r_epik_Ionization_Penalty>
  0.5601

> <r_epik_Ionization_Penalty_Charging>
  0.5601

> <r_epik_Ionization_Penalty_Neutral>
  0.0000

> <r_epik_State_Penalty>
  0.6253

> <r_epik_Charging_Adjusted_Penalty>
1.18539818263944

> <i_epik_Tot_Q>
0

> <i_epik_Tot_abs_Q>
2

> <s_lp_Force_Field>
OPLS3e

> <r_lp_Energy>
24.127928

> <b_lp_Chiralities_Consistent>
1

> <s_lp_Variant>
sdf/actives_sanitized.sdf:81-2

$$$$
sdf/actives_sanitized.sdf:82
                    3D
 Schrodinger Suite 2020-1.
 46 49  0  0  1  0            999 V2000
    0.2206   -0.0915    0.0239 S   0  0  0  0  0  0
   -0.5121    0.6602   -2.8544 O   0  0  0  0  0  0
    4.9876    0.4429    2.1897 N   0  0  0  0  0  0
    6.2343    0.3720    1.6954 N   0  0  0  0  0  0
    0.6413    2.5084   -3.4880 N   0  0  0  0  0  0
    9.5704   -0.3377   -2.3189 N   0  0  0  0  0  0
    4.7766    0.0072    0.0258 C   0  0  0  0  0  0
    4.0394    0.2272    1.2159 C   0  0  0  0  0  0
    6.1560    0.1155    0.4084 C   0  0  0  0  0  0
    1.9842   -0.0529    0.0479 C   0  0  0  0  0  0
    2.6419    0.2022    1.2538 C   0  0  0  0  0  0
    4.0791   -0.2478   -1.1671 C   0  0  0  0  0  0
   -0.1490    1.6466   -0.0227 C   0  0  0  0  0  0
    2.6851   -0.2761   -1.1374 C   0  0  0  0  0  0
   -0.2159    2.3959   -1.2241 C   0  0  0  0  0  0
    7.3147   -0.0311   -0.4584 C   0  0  0  0  0  0
   -0.0471    1.7717   -2.5957 C   0  0  0  0  0  0
   -0.3420    2.2800    1.2086 C   0  0  0  0  0  0
   -0.4681    3.7765   -1.1304 C   0  0  0  0  0  0
    8.6138    0.0283   -0.0978 C   0  0  0  0  0  0
   -0.5918    3.6475    1.2738 C   0  0  0  0  0  0
   -0.6529    4.3964    0.1036 C   0  0  0  0  0  0
    9.7822   -0.1228   -0.9893 C   0  0  0  0  0  0
   11.0737   -0.0443   -0.4531 C   0  0  0  0  0  0
   10.6486   -0.4775   -3.1322 C   0  0  0  0  0  0
   12.1715   -0.1910   -1.3037 C   0  0  0  0  0  0
    0.9369    2.1094   -4.8598 C   0  0  0  0  0  0
   11.9616   -0.4109   -2.6654 C   0  0  0  0  0  0
    4.8376    0.6336    3.1699 H   0  0  0  0  0  0
    0.9876    3.4120   -3.2006 H   0  0  0  0  0  0
    2.0935    0.3732    2.1688 H   0  0  0  0  0  0
    4.6076   -0.4207   -2.0930 H   0  0  0  0  0  0
    2.1433   -0.4709   -2.0520 H   0  0  0  0  0  0
    7.0607   -0.2051   -1.4941 H   0  0  0  0  0  0
   -0.2884    1.7112    2.1258 H   0  0  0  0  0  0
   -0.5367    4.3869   -2.0198 H   0  0  0  0  0  0
    8.8420    0.2026    0.9445 H   0  0  0  0  0  0
   -0.7350    4.1262    2.2313 H   0  0  0  0  0  0
   -0.8478    5.4578    0.1513 H   0  0  0  0  0  0
   11.2285    0.1261    0.6025 H   0  0  0  0  0  0
   10.4436   -0.6465   -4.1790 H   0  0  0  0  0  0
   13.1757   -0.1349   -0.9100 H   0  0  0  0  0  0
    2.0038    2.2227   -5.0528 H   0  0  0  0  0  0
    0.3968    2.7505   -5.5564 H   0  0  0  0  0  0
    0.6672    1.0740   -5.0725 H   0  0  0  0  0  0
   12.7959   -0.5272   -3.3414 H   0  0  0  0  0  0
  1 10  1  0  0  0
  1 13  1  0  0  0
  2 17  2  0  0  0
  3  4  1  0  0  0
  3  8  1  0  0  0
  3 29  1  0  0  0
  4  9  2  0  0  0
  5 17  1  0  0  0
  5 27  1  0  0  0
  5 30  1  0  0  0
  6 23  2  0  0  0
  6 25  1  0  0  0
  7  8  2  0  0  0
  7  9  1  0  0  0
  7 12  1  0  0  0
  8 11  1  0  0  0
  9 16  1  0  0  0
 10 11  2  0  0  0
 10 14  1  0  0  0
 11 31  1  0  0  0
 12 14  2  0  0  0
 12 32  1  0  0  0
 13 15  2  0  0  0
 13 18  1  0  0  0
 14 33  1  0  0  0
 15 17  1  0  0  0
 15 19  1  0  0  0
 16 20  2  3  0  0
 16 34  1  0  0  0
 18 21  2  0  0  0
 18 35  1  0  0  0
 19 22  2  0  0  0
 19 36  1  0  0  0
 20 23  1  0  0  0
 20 37  1  0  0  0
 21 22  1  0  0  0
 21 38  1  0  0  0
 22 39  1  0  0  0
 23 24  1  0  0  0
 24 26  2  0  0  0
 24 40  1  0  0  0
 25 28  2  0  0  0
 25 41  1  0  0  0
 26 28  1  0  0  0
 26 42  1  0  0  0
 27 43  1  0  0  0
 27 44  1  0  0  0
 27 45  1  0  0  0
 28 46  1  0  0  0
M  END
> <chembl_id>
CHEMBL1988437

> <chembl_pref_name>
None

> <s_m_source_file>
sdf/actives_sanitized.sdf

> <i_m_source_file_index>
82

> <i_lp_mmshare_version>
49012

> <i_m_ct_stereo_status>
1

> <i_f3d_flags>
0

> <s_epik_input>
W2NIXTFbY0hdW2NIXVtjSF1jKEMoPU8pW05IXVtDSDNdKWMxU2MoW2NIXVtjSF0yKVtjSF1jKGMyMylbbkhdbmMzL1tDSF09W0NIXS9jNG5bY0hdW2NIXVtjSF1bY0hdNA==

> <s_epik_cmdline>
J2VwaWtfcHl0aG9uJywgJy1waHQnLCAnMC41JywgJy1waCcsICc3LjUnLCAnLW50JywgJy1tYScsICcyMDAnLCAnLWltYWUnLCAnPGluZmlsZS5tYWU+JywgJy1vbWFlJywgJzxvdXRmaWxlLm1hZT4n

> <r_lp_tautomer_probability>
1

> <r_epik_Ionization_Penalty>
  0.0014

> <r_epik_Ionization_Penalty_Charging>
  0.0000

> <r_epik_Ionization_Penalty_Neutral>
  0.0014

> <r_epik_State_Penalty>
 -0.0000

> <r_epik_Charging_Adjusted_Penalty>
0

> <i_epik_Tot_Q>
0

> <i_epik_Tot_abs_Q>
0

> <s_lp_Force_Field>
OPLS3e

> <r_lp_Energy>
45.354387

> <b_lp_Chiralities_Consistent>
1

> <s_lp_Variant>
sdf/actives_sanitized.sdf:82-1

$$$$
sdf/actives_sanitized.sdf:83
                    3D
 Schrodinger Suite 2020-1.
 58 62  0  0  1  0            999 V2000
    4.6443    8.8839    1.0698 O   0  0  0  0  0  0
    0.0631   -0.0047   -0.1863 O   0  0  0  0  0  0
    2.6117    8.4490    0.1158 N   0  0  0  0  0  0
    5.6325    3.9541    2.2907 N   0  0  0  0  0  0
   -2.5495    2.5259    0.0394 N   0  0  0  0  0  0
    1.2559   -2.2749    1.0768 N   0  3  0  0  0  0
    2.2703    6.2974    0.6139 C   0  0  0  0  0  0
    3.5505    6.7237    1.1871 C   0  0  0  0  0  0
    1.7404    7.3950   -0.0244 C   0  0  0  0  0  0
    3.7125    8.1208    0.8148 C   0  0  0  0  0  0
    0.3313    4.9867   -0.0590 C   0  0  0  0  0  0
    1.5721    5.0871    0.5923 C   0  0  0  0  0  0
    0.5166    7.3369   -0.6857 C   0  0  0  0  0  0
   -0.4221    3.6991   -0.0656 C   0  0  0  0  0  0
    4.5005    6.0896    1.9123 C   0  0  0  0  0  0
   -0.1829    6.1286   -0.6970 C   0  0  0  0  0  0
    4.5033    4.7276    2.4088 C   0  0  0  0  0  0
    0.2356    2.4620   -0.1499 C   0  0  0  0  0  0
   -1.8204    3.6690    0.0270 C   0  0  0  0  0  0
   -0.4909    1.2587   -0.1285 C   0  0  0  0  0  0
    3.5635    3.9486    3.0785 C   0  0  0  0  0  0
   -1.8805    1.3498   -0.0375 C   0  0  0  0  0  0
    5.4166    2.7135    2.8329 C   0  0  0  0  0  0
    4.1250    2.6919    3.3302 C   0  0  0  0  0  0
    1.4831   -0.1426   -0.2112 C   0  0  0  0  0  0
    1.8705   -1.6332   -0.1762 C   0  0  2  0  0  0
    1.4291   -2.4212   -1.4320 C   0  0  0  0  0  0
    1.7873   -3.9028   -1.3991 C   0  0  0  0  0  0
    0.7963   -4.8586   -1.1560 C   0  0  0  0  0  0
    3.1091   -4.3032   -1.6140 C   0  0  0  0  0  0
    1.1276   -6.2107   -1.1258 C   0  0  0  0  0  0
    3.4397   -5.6554   -1.5824 C   0  0  0  0  0  0
    2.4476   -6.6029   -1.3385 C   0  0  0  0  0  0
    2.4532    9.3691   -0.2677 H   0  0  0  0  0  0
    6.4944    4.2536    1.8575 H   0  0  0  0  0  0
    0.2483   -2.2173    1.0328 H   0  0  0  0  0  0
    1.5723   -1.7949    1.9071 H   0  0  0  0  0  0
    1.9810    4.2147    1.0729 H   0  0  0  0  0  0
    0.1063    8.2007   -1.1876 H   0  0  0  0  0  0
    5.3987    6.6265    2.1888 H   0  0  0  0  0  0
   -1.1298    6.0839   -1.2150 H   0  0  0  0  0  0
    1.3118    2.4466   -0.2313 H   0  0  0  0  0  0
   -2.3914    4.5824    0.1072 H   0  0  0  0  0  0
    2.5677    4.2611    3.3577 H   0  0  0  0  0  0
   -2.4880    0.4569   -0.0188 H   0  0  0  0  0  0
    6.1973    1.9672    2.8218 H   0  0  0  0  0  0
    3.6441    1.8638    3.8297 H   0  0  0  0  0  0
    1.8963    0.3266   -1.1061 H   0  0  0  0  0  0
    1.9202    0.3622    0.6531 H   0  0  0  0  0  0
    2.9437   -1.7398   -0.0099 H   0  0  0  0  0  0
    0.3557   -2.3065   -1.5945 H   0  0  0  0  0  0
    1.8912   -1.9816   -2.3176 H   0  0  0  0  0  0
   -0.2284   -4.5581   -0.9917 H   0  0  0  0  0  0
    3.8794   -3.5699   -1.8050 H   0  0  0  0  0  0
    0.3649   -6.9526   -0.9397 H   0  0  0  0  0  0
    4.4602   -5.9687   -1.7473 H   0  0  0  0  0  0
    2.7042   -7.6519   -1.3162 H   0  0  0  0  0  0
    1.5244   -3.2469    1.1363 H   0  0  0  0  0  0
  1 10  2  0  0  0
  2 20  1  0  0  0
  2 25  1  0  0  0
  3  9  1  0  0  0
  3 10  1  0  0  0
  3 34  1  0  0  0
  4 17  1  0  0  0
  4 23  1  0  0  0
  4 35  1  0  0  0
  5 19  2  0  0  0
  5 22  1  0  0  0
  6 26  1  0  0  0
  6 36  1  0  0  0
  6 37  1  0  0  0
  6 58  1  0  0  0
  7  8  1  0  0  0
  7  9  2  0  0  0
  7 12  1  0  0  0
  8 10  1  0  0  0
  8 15  2  3  0  0
  9 13  1  0  0  0
 11 12  2  0  0  0
 11 14  1  0  0  0
 11 16  1  0  0  0
 12 38  1  0  0  0
 13 16  2  0  0  0
 13 39  1  0  0  0
 14 18  2  0  0  0
 14 19  1  0  0  0
 15 17  1  0  0  0
 15 40  1  0  0  0
 16 41  1  0  0  0
 17 21  2  0  0  0
 18 20  1  0  0  0
 18 42  1  0  0  0
 19 43  1  0  0  0
 20 22  2  0  0  0
 21 24  1  0  0  0
 21 44  1  0  0  0
 22 45  1  0  0  0
 23 24  2  0  0  0
 23 46  1  0  0  0
 24 47  1  0  0  0
 25 26  1  0  0  0
 25 48  1  0  0  0
 25 49  1  0  0  0
 26 27  1  0  0  0
 26 50  1  0  0  0
 27 28  1  0  0  0
 27 51  1  0  0  0
 27 52  1  0  0  0
 28 29  2  0  0  0
 28 30  1  0  0  0
 29 31  1  0  0  0
 29 53  1  0  0  0
 30 32  2  0  0  0
 30 54  1  0  0  0
 31 33  2  0  0  0
 31 55  1  0  0  0
 32 33  1  0  0  0
 32 56  1  0  0  0
 33 57  1  0  0  0
M  CHG  1   6   1
M  END
> <chembl_id>
CHEMBL1980407

> <chembl_pref_name>
None

> <s_m_source_file>
sdf/actives_sanitized.sdf

> <i_m_source_file_index>
83

> <i_lp_mmshare_version>
49012

> <i_m_ct_stereo_status>
1

> <i_f3d_flags>
0

> <s_epik_input>
W2NIXTFbY0hdW2NIXVtuSF1jMS9bQ0hdPUNcMkMoPU8pW05IXWMoYzIzKVtjSF1bY0hdYyhbY0hdMyktYzRbY0hdYyhbY0hdbltjSF00KU9bQ0gyXVtDQEBIXShbTkgyXSlbQ0gyXWM1W2NIXVtjSF1bY0hdW2NIXVtjSF01

> <s_epik_cmdline>
J2VwaWtfcHl0aG9uJywgJy1waHQnLCAnMC41JywgJy1waCcsICc3LjUnLCAnLW50JywgJy1tYScsICcyMDAnLCAnLWltYWUnLCAnPGluZmlsZS5tYWU+JywgJy1vbWFlJywgJzxvdXRmaWxlLm1hZT4n

> <r_lp_tautomer_probability>
1

> <r_epik_Ionization_Penalty>
  0.0467

> <r_epik_Ionization_Penalty_Charging>
  0.0466

> <r_epik_Ionization_Penalty_Neutral>
  0.0002

> <r_epik_State_Penalty>
  0.0396

> <r_epik_Charging_Adjusted_Penalty>
0.0861977391242742

> <i_epik_Tot_Q>
1

> <i_epik_Tot_abs_Q>
1

> <s_lp_Force_Field>
OPLS3e

> <r_lp_Energy>
40.688253

> <b_lp_Chiralities_Consistent>
1

> <s_lp_Variant>
sdf/actives_sanitized.sdf:83-1

$$$$
sdf/actives_sanitized.sdf:84
                    3D
 Schrodinger Suite 2020-1.
 61 65  0  0  1  0            999 V2000
    1.5682   -3.3831   -0.5246 C   0  0  0  0  0  0
   13.3620   -2.0336   -1.8746 C   0  0  0  0  0  0
    7.9366   -1.5112   -0.0870 F   0  0  0  0  0  0
    7.6216   -1.4130   -3.7352 C   0  0  0  0  0  0
    8.9416   -1.5388   -4.1683 C   0  0  0  0  0  0
    5.3727    2.2475   -2.1746 C   0  0  0  0  0  0
    2.0143    1.4156   -1.1296 C   0  0  0  0  0  0
   10.8562   -1.7892   -1.0905 C   0  0  0  0  0  0
    3.1882   -1.1311   -1.2192 C   0  0  0  0  0  0
   -6.6697    3.1104    1.0657 C   0  0  0  0  0  0
   -6.7507    2.0041    0.0158 C   0  0  0  0  0  0
   -2.1875    1.3518    0.0925 C   0  0  0  0  0  0
   -0.7405    1.5953   -0.3565 C   0  0  0  0  0  0
   -5.2391    3.6290    0.9863 C   0  0  0  0  0  0
   -5.3134    1.5322   -0.2465 C   0  0  0  0  0  0
   -3.0040    2.6514    0.1800 C   0  0  0  0  0  0
    6.0429    1.0745   -2.2552 N   0  0  0  0  0  0
    4.0752    2.4211   -1.8197 N   0  0  0  0  0  0
   11.2940   -1.7940   -3.2740 N   0  0  0  0  0  0
    1.0345   -2.0631   -0.5030 O   0  0  0  0  0  0
   -0.0738    0.3382   -0.4206 O   0  0  0  0  0  0
    5.9648   -1.2772   -2.0082 O   0  0  0  0  0  0
   11.8686   -1.8761   -2.0277 C   0  0  0  0  0  0
    8.2705   -1.5200   -1.3988 C   0  0  0  0  0  0
    7.2848   -1.3991   -2.3810 C   0  0  0  0  0  0
    1.8430   -0.9918   -0.8431 C   0  0  0  0  0  0
    1.2565    0.2805   -0.7993 C   0  0  0  0  0  0
    5.3312   -0.0458   -1.9445 C   0  0  0  0  0  0
    3.3695    1.2959   -1.5081 C   0  0  0  0  0  0
    9.9249   -1.6560   -3.1805 C   0  0  0  0  0  0
    9.6129   -1.6493   -1.7903 C   0  0  0  0  0  0
    3.9651    0.0020   -1.5546 C   0  0  0  0  0  0
   -4.4235    2.3566    0.7086 N   0  3  0  0  0  0
    0.7934   -4.0890   -0.2257 H   0  0  0  0  0  0
    2.3990   -3.4908    0.1744 H   0  0  0  0  0  0
    1.9014   -3.6638   -1.5249 H   0  0  0  0  0  0
   13.6610   -2.0637   -0.8267 H   0  0  0  0  0  0
   13.9039   -1.2094   -2.3391 H   0  0  0  0  0  0
   13.7190   -2.9545   -2.3363 H   0  0  0  0  0  0
    6.8364   -1.3197   -4.4714 H   0  0  0  0  0  0
    9.1835   -1.5445   -5.2211 H   0  0  0  0  0  0
    5.9302    3.1398   -2.4189 H   0  0  0  0  0  0
    1.5842    2.4058   -1.1025 H   0  0  0  0  0  0
   11.0023   -1.8238   -0.0208 H   0  0  0  0  0  0
    3.6610   -2.1008   -1.2604 H   0  0  0  0  0  0
   -7.3990    3.9004    0.8815 H   0  0  0  0  0  0
   -6.8643    2.7100    2.0619 H   0  0  0  0  0  0
   -7.3855    1.1835    0.3530 H   0  0  0  0  0  0
   -7.1865    2.3867   -0.9086 H   0  0  0  0  0  0
   -2.6632    0.6620   -0.6056 H   0  0  0  0  0  0
   -2.1862    0.8563    1.0645 H   0  0  0  0  0  0
   -0.7312    2.0762   -1.3366 H   0  0  0  0  0  0
   -0.2373    2.2538    0.3543 H   0  0  0  0  0  0
   -5.0734    4.2998    0.1408 H   0  0  0  0  0  0
   -4.8548    4.0933    1.8955 H   0  0  0  0  0  0
   -5.1322    0.4796   -0.0260 H   0  0  0  0  0  0
   -5.0030    1.7688   -1.2657 H   0  0  0  0  0  0
   -2.5722    3.3481    0.9002 H   0  0  0  0  0  0
   -3.1214    3.1503   -0.7837 H   0  0  0  0  0  0
   11.8443   -1.8352   -4.1197 H   0  0  0  0  0  0
   -4.3346    1.8581    1.5831 H   0  0  0  0  0  0
  1 20  1  0  0  0
  1 34  1  0  0  0
  1 35  1  0  0  0
  1 36  1  0  0  0
  2 23  1  0  0  0
  2 37  1  0  0  0
  2 38  1  0  0  0
  2 39  1  0  0  0
  3 24  1  0  0  0
  4  5  2  0  0  0
  4 25  1  0  0  0
  4 40  1  0  0  0
  5 30  1  0  0  0
  5 41  1  0  0  0
  6 17  2  0  0  0
  6 18  1  0  0  0
  6 42  1  0  0  0
  7 27  2  0  0  0
  7 29  1  0  0  0
  7 43  1  0  0  0
  8 23  2  0  0  0
  8 31  1  0  0  0
  8 44  1  0  0  0
  9 26  2  0  0  0
  9 32  1  0  0  0
  9 45  1  0  0  0
 10 11  1  0  0  0
 10 14  1  0  0  0
 10 46  1  0  0  0
 10 47  1  0  0  0
 11 15  1  0  0  0
 11 48  1  0  0  0
 11 49  1  0  0  0
 12 13  1  0  0  0
 12 16  1  0  0  0
 12 50  1  0  0  0
 12 51  1  0  0  0
 13 21  1  0  0  0
 13 52  1  0  0  0
 13 53  1  0  0  0
 14 33  1  0  0  0
 14 54  1  0  0  0
 14 55  1  0  0  0
 15 33  1  0  0  0
 15 56  1  0  0  0
 15 57  1  0  0  0
 16 33  1  0  0  0
 16 58  1  0  0  0
 16 59  1  0  0  0
 17 28  1  0  0  0
 18 29  2  0  0  0
 19 23  1  0  0  0
 19 30  1  0  0  0
 19 60  1  0  0  0
 20 26  1  0  0  0
 21 27  1  0  0  0
 22 25  1  0  0  0
 22 28  1  0  0  0
 24 25  2  0  0  0
 24 31  1  0  0  0
 26 27  1  0  0  0
 28 32  2  0  0  0
 29 32  1  0  0  0
 30 31  2  0  0  0
 33 61  1  0  0  0
M  CHG  1  33   1
M  END
> <chembl_id>
CHEMBL491473

> <chembl_pref_name>
CEDIRANIB

> <s_m_source_file>
sdf/actives_sanitized.sdf

> <i_m_source_file_index>
84

> <i_lp_mmshare_version>
49012

> <i_m_ct_stereo_status>
1

> <i_f3d_flags>
0

> <s_epik_input>
W0NIMl0xW0NIMl1bQ0gyXVtDSDJdTjFbQ0gyXVtDSDJdW0NIMl1PYyhbY0hdMiljKE9bQ0gzXSlbY0hdYyhjMjMpYyhuW2NIXW4zKU9jKFtjSF1bY0hdNCljKEYpYyhjNDUpW2NIXWMoW0NIM10pW25IXTU=

> <s_epik_cmdline>
J2VwaWtfcHl0aG9uJywgJy1waHQnLCAnMC41JywgJy1waCcsICc3LjUnLCAnLW50JywgJy1tYScsICcyMDAnLCAnLWltYWUnLCAnPGluZmlsZS5tYWU+JywgJy1vbWFlJywgJzxvdXRmaWxlLm1hZT4n

> <r_lp_tautomer_probability>
1

> <r_epik_Ionization_Penalty>
  0.0032

> <r_epik_Ionization_Penalty_Charging>
  0.0032

> <r_epik_Ionization_Penalty_Neutral>
  0.0000

> <r_epik_State_Penalty>
 -0.0000

> <r_epik_Charging_Adjusted_Penalty>
0.00316327511920723

> <i_epik_Tot_Q>
1

> <i_epik_Tot_abs_Q>
1

> <s_lp_Force_Field>
OPLS3e

> <r_lp_Energy>
54.37902

> <b_lp_Chiralities_Consistent>
1

> <s_lp_Variant>
sdf/actives_sanitized.sdf:84-1

$$$$
sdf/actives_sanitized.sdf:85
                    3D
 Schrodinger Suite 2020-1.
 73 76  0  0  1  0            999 V2000
   -2.8717    2.7114    0.6456 S   0  0  0  0  0  0
   -0.3309    0.8492    0.5690 O   0  0  0  0  0  0
  -11.6430    4.0383    1.8622 O   0  0  0  0  0  0
   -4.2868   -1.2087   -1.1324 N   0  0  0  0  0  0
   -6.4913   -0.5311   -0.9096 N   0  0  0  0  0  0
   -0.1506   -0.4228   -1.2993 N   0  0  0  0  0  0
  -11.0225    3.0822   -0.1248 N   0  0  0  0  0  0
  -13.1463    3.5899    0.1930 N   0  0  0  0  0  0
    4.1358   -2.4180    0.4984 N   0  3  0  0  0  0
   -4.6928    1.0024   -0.2182 C   0  0  0  0  0  0
   -3.2694    1.1487   -0.0668 C   0  0  0  0  0  0
   -5.4160    2.1710    0.2210 C   0  0  0  0  0  0
   -2.3635    0.1331   -0.4656 C   0  0  0  0  0  0
   -5.1378   -0.2308   -0.7537 C   0  0  0  0  0  0
   -6.8873    2.3966    0.1614 C   0  0  0  0  0  0
   -4.5551    3.1238    0.7242 C   0  0  0  0  0  0
   -2.9587   -1.0195   -0.9932 C   0  0  0  0  0  0
   -0.8581    0.2126   -0.3443 C   0  0  0  0  0  0
   -7.6110    2.6094    1.3363 C   0  0  0  0  0  0
   -7.5406    2.4208   -1.0722 C   0  0  0  0  0  0
   -9.6408    2.8676    0.0402 C   0  0  0  0  0  0
   -8.9837    2.8380    1.2808 C   0  0  0  0  0  0
   -8.9124    2.6474   -1.1309 C   0  0  0  0  0  0
    1.3084   -0.4533   -1.3853 C   0  0  0  0  0  0
  -11.9140    3.6062    0.7413 C   0  0  0  0  0  0
  -14.3545    4.0994    0.7053 C   0  0  0  0  0  0
    1.9744   -1.3922   -0.3614 C   0  0  0  0  0  0
  -15.5282    3.6488    0.0915 C   0  0  0  0  0  0
  -14.4464    5.0369    1.7487 C   0  0  0  0  0  0
  -16.7788    4.1038    0.5194 C   0  0  0  0  0  0
    3.5059   -1.4280   -0.5141 C   0  0  0  0  0  0
  -15.6934    5.4961    2.1724 C   0  0  0  0  0  0
  -16.8565    5.0315    1.5607 C   0  0  0  0  0  0
  -18.0436    3.6121   -0.1612 C   0  0  0  0  0  0
    5.4975   -2.9692    0.0043 C   0  0  0  0  0  0
    4.2353   -1.8089    1.9204 C   0  0  0  0  0  0
    5.2922   -4.0463   -1.0737 C   0  0  0  0  0  0
    4.2978   -2.9146    2.9870 C   0  0  0  0  0  0
   -7.1872    0.1457   -0.6297 H   0  0  0  0  0  0
   -6.7590   -1.4328   -1.2781 H   0  0  0  0  0  0
   -0.6533   -0.9060   -2.0296 H   0  0  0  0  0  0
  -11.3717    2.8567   -1.0445 H   0  0  0  0  0  0
  -13.2376    3.1112   -0.6908 H   0  0  0  0  0  0
   -4.8326    4.0879    1.1253 H   0  0  0  0  0  0
   -2.3595   -1.8600   -1.3135 H   0  0  0  0  0  0
   -7.1127    2.5915    2.2950 H   0  0  0  0  0  0
   -6.9866    2.2637   -1.9867 H   0  0  0  0  0  0
   -9.5110    2.9762    2.2114 H   0  0  0  0  0  0
   -9.4023    2.6598   -2.0943 H   0  0  0  0  0  0
    1.5832   -0.7650   -2.3938 H   0  0  0  0  0  0
    1.7175    0.5554   -1.2949 H   0  0  0  0  0  0
    1.6999   -1.0733    0.6434 H   0  0  0  0  0  0
    1.5778   -2.4015   -0.4816 H   0  0  0  0  0  0
  -15.4737    2.9366   -0.7204 H   0  0  0  0  0  0
  -13.5708    5.4377    2.2346 H   0  0  0  0  0  0
    3.9856   -0.4618   -0.3474 H   0  0  0  0  0  0
    3.7688   -1.7786   -1.5112 H   0  0  0  0  0  0
  -15.7573    6.2190    2.9723 H   0  0  0  0  0  0
  -17.8164    5.3973    1.8958 H   0  0  0  0  0  0
  -18.8316    4.3650   -0.1174 H   0  0  0  0  0  0
  -18.4029    2.6977    0.3116 H   0  0  0  0  0  0
  -17.8631    3.4100   -1.2177 H   0  0  0  0  0  0
    6.0784   -2.1110   -0.3386 H   0  0  0  0  0  0
    5.9980   -3.4062    0.8671 H   0  0  0  0  0  0
    5.1064   -1.1515    1.9208 H   0  0  0  0  0  0
    3.3431   -1.2032    2.0726 H   0  0  0  0  0  0
    6.2498   -4.4781   -1.3660 H   0  0  0  0  0  0
    4.8303   -3.6542   -1.9791 H   0  0  0  0  0  0
    4.6675   -4.8602   -0.7039 H   0  0  0  0  0  0
    4.2825   -2.4793    3.9866 H   0  0  0  0  0  0
    5.2030   -3.5165    2.9165 H   0  0  0  0  0  0
    3.4415   -3.5857    2.9116 H   0  0  0  0  0  0
    3.5082   -3.2074    0.5630 H   0  0  0  0  0  0
  1 11  1  0  0  0
  1 16  1  0  0  0
  2 18  2  0  0  0
  3 25  2  0  0  0
  4 14  2  0  0  0
  4 17  1  0  0  0
  5 14  1  0  0  0
  5 39  1  0  0  0
  5 40  1  0  0  0
  6 18  1  0  0  0
  6 24  1  0  0  0
  6 41  1  0  0  0
  7 21  1  0  0  0
  7 25  1  0  0  0
  7 42  1  0  0  0
  8 25  1  0  0  0
  8 26  1  0  0  0
  8 43  1  0  0  0
  9 31  1  0  0  0
  9 35  1  0  0  0
  9 36  1  0  0  0
  9 73  1  0  0  0
 10 11  2  0  0  0
 10 12  1  0  0  0
 10 14  1  0  0  0
 11 13  1  0  0  0
 12 15  1  0  0  0
 12 16  2  0  0  0
 13 17  2  0  0  0
 13 18  1  0  0  0
 15 19  2  0  0  0
 15 20  1  0  0  0
 16 44  1  0  0  0
 17 45  1  0  0  0
 19 22  1  0  0  0
 19 46  1  0  0  0
 20 23  2  0  0  0
 20 47  1  0  0  0
 21 22  2  0  0  0
 21 23  1  0  0  0
 22 48  1  0  0  0
 23 49  1  0  0  0
 24 27  1  0  0  0
 24 50  1  0  0  0
 24 51  1  0  0  0
 26 28  2  0  0  0
 26 29  1  0  0  0
 27 31  1  0  0  0
 27 52  1  0  0  0
 27 53  1  0  0  0
 28 30  1  0  0  0
 28 54  1  0  0  0
 29 32  2  0  0  0
 29 55  1  0  0  0
 30 33  2  0  0  0
 30 34  1  0  0  0
 31 56  1  0  0  0
 31 57  1  0  0  0
 32 33  1  0  0  0
 32 58  1  0  0  0
 33 59  1  0  0  0
 34 60  1  0  0  0
 34 61  1  0  0  0
 34 62  1  0  0  0
 35 37  1  0  0  0
 35 63  1  0  0  0
 35 64  1  0  0  0
 36 38  1  0  0  0
 36 65  1  0  0  0
 36 66  1  0  0  0
 37 67  1  0  0  0
 37 68  1  0  0  0
 37 69  1  0  0  0
 38 70  1  0  0  0
 38 71  1  0  0  0
 38 72  1  0  0  0
M  CHG  1   9   1
M  END
> <chembl_id>
CHEMBL1999414

> <chembl_pref_name>
None

> <s_m_source_file>
sdf/actives_sanitized.sdf

> <i_m_source_file_index>
85

> <i_lp_mmshare_version>
49012

> <i_m_ct_stereo_status>
1

> <i_f3d_flags>
0

> <s_epik_input>
W0NIM11bQ0gyXU4oW0NIMl1bQ0gzXSlbQ0gyXVtDSDJdW0NIMl1bTkhdQyg9TyljKFtjSF1uYzFbTkgyXSljKGMxMilzW2NIXWMyLWMzW2NIXVtjSF1jKFtjSF1bY0hdMylbTkhdQyg9TylbTkhdYzRbY0hdYyhbQ0gzXSlbY0hdW2NIXVtjSF00

> <s_epik_cmdline>
J2VwaWtfcHl0aG9uJywgJy1waHQnLCAnMC41JywgJy1waCcsICc3LjUnLCAnLW50JywgJy1tYScsICcyMDAnLCAnLWltYWUnLCAnPGluZmlsZS5tYWU+JywgJy1vbWFlJywgJzxvdXRmaWxlLm1hZT4n

> <r_lp_tautomer_probability>
1

> <r_epik_Ionization_Penalty>
  0.0039

> <r_epik_Ionization_Penalty_Charging>
  0.0028

> <r_epik_Ionization_Penalty_Neutral>
  0.0011

> <r_epik_State_Penalty>
 -0.0000

> <r_epik_Charging_Adjusted_Penalty>
0.00276834781546993

> <i_epik_Tot_Q>
1

> <i_epik_Tot_abs_Q>
1

> <s_lp_Force_Field>
OPLS3e

> <r_lp_Energy>
64.928552

> <b_lp_Chiralities_Consistent>
1

> <s_lp_Variant>
sdf/actives_sanitized.sdf:85-1

$$$$
