sdf/inactives_sanitized.sdf:1
                    3D
 Schrodinger Suite 2020-1.
 31 33  0  0  1  0            999 V2000
    5.5356   -2.6065   -0.5959 F   0  0  0  0  0  0
    1.3104   -4.4151   -1.7515 F   0  0  0  0  0  0
   -0.2278    2.5341    0.2401 O   0  0  0  0  0  0
    4.3675   -0.2078    0.1226 N   0  0  0  0  0  0
    0.1643    0.3121   -0.1782 N   0  0  0  0  0  0
   -1.9186    1.0391   -0.1345 N   0  0  0  0  0  0
   -3.0016    3.1886    0.2334 N   0  0  0  0  0  0
   -5.4724    1.9162   -0.1738 N   0  0  0  0  0  0
    2.1571   -1.0765   -0.4535 C   0  0  0  0  0  0
    3.5783   -1.2191   -0.3346 C   0  0  0  0  0  0
    1.5683    0.1777   -0.0791 C   0  0  0  0  0  0
    4.1946   -2.4463   -0.6998 C   0  0  0  0  0  0
    1.4086   -2.1875   -0.9406 C   0  0  0  0  0  0
    2.0420   -3.3757   -1.2902 C   0  0  0  0  0  0
    2.4163    1.1901    0.3976 C   0  0  0  0  0  0
    3.4201   -3.5025   -1.1701 C   0  0  0  0  0  0
    3.7834    0.9582    0.4762 C   0  0  0  0  0  0
   -0.6232    1.3927    0.0000 C   0  0  0  0  0  0
   -3.0642    1.8506   -0.0389 C   0  0  0  0  0  0
   -4.3024    1.2271   -0.2389 C   0  0  0  0  0  0
   -4.1697    3.8787    0.2990 C   0  0  0  0  0  0
   -5.3975    3.2456    0.0959 C   0  0  0  0  0  0
   -0.3122   -0.5473   -0.4083 H   0  0  0  0  0  0
   -2.1057    0.0670   -0.3321 H   0  0  0  0  0  0
    0.3361   -2.1154   -1.0450 H   0  0  0  0  0  0
    2.0538    2.1524    0.7197 H   0  0  0  0  0  0
    3.8954   -4.4323   -1.4464 H   0  0  0  0  0  0
    4.4456    1.7296    0.8410 H   0  0  0  0  0  0
   -4.3781    0.1710   -0.4549 H   0  0  0  0  0  0
   -4.1083    4.9353    0.5139 H   0  0  0  0  0  0
   -6.3274    3.7927    0.1464 H   0  0  0  0  0  0
  1 12  1  0  0  0
  2 14  1  0  0  0
  3 18  2  0  0  0
  4 10  2  0  0  0
  4 17  1  0  0  0
  5 11  1  0  0  0
  5 18  1  0  0  0
  5 23  1  0  0  0
  6 18  1  0  0  0
  6 19  1  0  0  0
  6 24  1  0  0  0
  7 19  2  0  0  0
  7 21  1  0  0  0
  8 20  2  0  0  0
  8 22  1  0  0  0
  9 10  1  0  0  0
  9 11  2  0  0  0
  9 13  1  0  0  0
 10 12  1  0  0  0
 11 15  1  0  0  0
 12 16  2  0  0  0
 13 14  2  0  0  0
 13 25  1  0  0  0
 14 16  1  0  0  0
 15 17  2  0  0  0
 15 26  1  0  0  0
 16 27  1  0  0  0
 17 28  1  0  0  0
 19 20  1  0  0  0
 20 29  1  0  0  0
 21 22  2  0  0  0
 21 30  1  0  0  0
 22 31  1  0  0  0
M  END
> <chembl_id>
CHEMBL1967336

> <chembl_pref_name>
None

> <s_m_source_file>
sdf/inactives_sanitized.sdf

> <i_m_source_file_index>
1

> <i_lp_mmshare_version>
49012

> <i_m_ct_stereo_status>
1

> <i_f3d_flags>
0

> <s_epik_input>
RmMoW2NIXTEpW2NIXWMoRiljKGMxMiluW2NIXVtjSF1jMltOSF1DKD1PKVtOSF1jM25bY0hdW2NIXW5bY0hdMw==

> <s_epik_cmdline>
J2VwaWtfcHl0aG9uJywgJy1waHQnLCAnMC41JywgJy1waCcsICc3LjUnLCAnLW50JywgJy1tYScsICcyMDAnLCAnLWltYWUnLCAnPGluZmlsZS5tYWU+JywgJy1vbWFlJywgJzxvdXRmaWxlLm1hZT4n

> <r_lp_tautomer_probability>
1

> <r_epik_Ionization_Penalty>
  0.0001

> <r_epik_Ionization_Penalty_Charging>
  0.0000

> <r_epik_Ionization_Penalty_Neutral>
  0.0001

> <r_epik_State_Penalty>
 -0.0000

> <r_epik_Charging_Adjusted_Penalty>
0

> <i_epik_Tot_Q>
0

> <i_epik_Tot_abs_Q>
0

> <s_lp_Force_Field>
OPLS3e

> <r_lp_Energy>
48.101677

> <b_lp_Chiralities_Consistent>
1

> <s_lp_Variant>
sdf/inactives_sanitized.sdf:1-1

$$$$
sdf/inactives_sanitized.sdf:2
                    3D
 Schrodinger Suite 2020-1.
 52 55  0  0  1  0            999 V2000
    6.9297   -0.4845   -1.5613 Cl  0  0  0  0  0  0
    6.7478    2.0252    3.3493 Cl  0  0  0  0  0  0
    2.9884    1.9046    0.1790 S   0  0  0  0  0  0
    5.9007    2.6199   -0.0891 O   0  0  0  0  0  0
    2.6069   -0.3624    1.3235 N   0  0  0  0  0  0
    0.5828    0.6683    0.7239 N   0  0  0  0  0  0
    4.6848   -1.1874    1.8135 N   0  0  0  0  0  0
   -3.0465    4.6827   -0.7537 N   0  0  0  0  0  0
   -2.7079    7.1489   -2.3658 N   0  3  0  0  0  0
    4.3864    0.9917    0.6938 C   0  0  0  0  0  0
    5.7321    1.5323    0.4635 C   0  0  0  0  0  0
    6.9050    0.7307    0.9166 C   0  0  0  0  0  0
    3.9128   -0.1933    1.2822 C   0  0  0  0  0  0
    1.9585    0.6448    0.8004 C   0  0  0  0  0  0
    7.5072   -0.2045    0.0504 C   0  0  0  0  0  0
    7.4268    0.9017    2.2151 C   0  0  0  0  0  0
   -0.2836    1.7141    0.3612 C   0  0  0  0  0  0
    8.6047   -0.9495    0.4846 C   0  0  0  0  0  0
    8.5247    0.1461    2.6295 C   0  0  0  0  0  0
   -2.1228    3.7150   -0.3643 C   0  0  0  0  0  0
    9.1127   -0.7764    1.7688 C   0  0  0  0  0  0
   -1.4872    1.3747   -0.2563 C   0  0  0  0  0  0
   -0.0134    3.0574    0.6421 C   0  0  0  0  0  0
   -2.3935    2.3658   -0.6224 C   0  0  0  0  0  0
   -0.9214    4.0474    0.2771 C   0  0  0  0  0  0
   -3.0982    6.0299   -0.1544 C   0  0  0  0  0  0
   -3.4623    4.7738   -2.1653 C   0  0  0  0  0  0
   -2.2393    7.0789   -0.8996 C   0  0  0  0  0  0
   -2.5908    5.7454   -2.9903 C   0  0  0  0  0  0
   -1.8699    8.1711   -3.1577 C   0  0  0  0  0  0
    0.0955   -0.2118    0.8124 H   0  0  0  0  0  0
    5.6931   -1.1319    1.8166 H   0  0  0  0  0  0
    4.2711   -2.0133    2.2218 H   0  0  0  0  0  0
    9.0666   -1.6674   -0.1774 H   0  0  0  0  0  0
    8.9244    0.2740    3.6251 H   0  0  0  0  0  0
    9.9623   -1.3570    2.0971 H   0  0  0  0  0  0
   -1.7250    0.3410   -0.4637 H   0  0  0  0  0  0
    0.8857    3.3488    1.1628 H   0  0  0  0  0  0
   -3.3168    2.0738   -1.1022 H   0  0  0  0  0  0
   -0.6759    5.0728    0.5074 H   0  0  0  0  0  0
   -4.1380    6.3609   -0.1354 H   0  0  0  0  0  0
   -2.7907    5.9796    0.8909 H   0  0  0  0  0  0
   -3.4323    3.7907   -2.6362 H   0  0  0  0  0  0
   -4.5068    5.0877   -2.2062 H   0  0  0  0  0  0
   -1.1746    6.8392   -0.9041 H   0  0  0  0  0  0
   -2.3817    8.0785   -0.4860 H   0  0  0  0  0  0
   -2.9482    5.8338   -4.0174 H   0  0  0  0  0  0
   -1.5347    5.4671   -2.9951 H   0  0  0  0  0  0
   -0.8266    7.8519   -3.1320 H   0  0  0  0  0  0
   -2.0070    9.1394   -2.6745 H   0  0  0  0  0  0
   -2.2612    8.1864   -4.1758 H   0  0  0  0  0  0
   -3.6798    7.4256   -2.3807 H   0  0  0  0  0  0
  1 15  1  0  0  0
  2 16  1  0  0  0
  3 10  1  0  0  0
  3 14  1  0  0  0
  4 11  2  0  0  0
  5 13  1  0  0  0
  5 14  2  0  0  0
  6 14  1  0  0  0
  6 17  1  0  0  0
  6 31  1  0  0  0
  7 13  1  0  0  0
  7 32  1  0  0  0
  7 33  1  0  0  0
  8 20  1  0  0  0
  8 26  1  0  0  0
  8 27  1  0  0  0
  9 28  1  0  0  0
  9 29  1  0  0  0
  9 30  1  0  0  0
  9 52  1  0  0  0
 10 11  1  0  0  0
 10 13  2  0  0  0
 11 12  1  0  0  0
 12 15  2  0  0  0
 12 16  1  0  0  0
 15 18  1  0  0  0
 16 19  2  0  0  0
 17 22  2  0  0  0
 17 23  1  0  0  0
 18 21  2  0  0  0
 18 34  1  0  0  0
 19 21  1  0  0  0
 19 35  1  0  0  0
 20 24  2  0  0  0
 20 25  1  0  0  0
 21 36  1  0  0  0
 22 24  1  0  0  0
 22 37  1  0  0  0
 23 25  2  0  0  0
 23 38  1  0  0  0
 24 39  1  0  0  0
 25 40  1  0  0  0
 26 28  1  0  0  0
 26 41  1  0  0  0
 26 42  1  0  0  0
 27 29  1  0  0  0
 27 43  1  0  0  0
 27 44  1  0  0  0
 28 45  1  0  0  0
 28 46  1  0  0  0
 29 47  1  0  0  0
 29 48  1  0  0  0
 30 49  1  0  0  0
 30 50  1  0  0  0
 30 51  1  0  0  0
M  CHG  1   9   1
M  END
> <chembl_id>
CHEMBL1989043

> <chembl_pref_name>
None

> <s_m_source_file>
sdf/inactives_sanitized.sdf

> <i_m_source_file_index>
2

> <i_lp_mmshare_version>
49012

> <i_m_ct_stereo_status>
1

> <i_f3d_flags>
0

> <s_epik_input>
Q2xjMVtjSF1bY0hdW2NIXWMoQ2wpYzFDKD1PKWMyc2MobmMyW05IMl0pW05IXWMzW2NIXVtjSF1jKFtjSF1bY0hdMylONFtDSDJdW0NIMl1OKFtDSDNdKVtDSDJdW0NIMl00

> <s_epik_cmdline>
J2VwaWtfcHl0aG9uJywgJy1waHQnLCAnMC41JywgJy1waCcsICc3LjUnLCAnLW50JywgJy1tYScsICcyMDAnLCAnLWltYWUnLCAnPGluZmlsZS5tYWU+JywgJy1vbWFlJywgJzxvdXRmaWxlLm1hZT4n

> <r_epik_Ionization_Penalty>
  0.1848

> <r_epik_Ionization_Penalty_Charging>
  0.1844

> <r_epik_Ionization_Penalty_Neutral>
  0.0004

> <r_epik_State_Penalty>
  0.1740

> <r_epik_Charging_Adjusted_Penalty>
0.358412825985856

> <i_epik_Tot_Q>
1

> <i_epik_Tot_abs_Q>
1

> <s_lp_Force_Field>
OPLS3e

> <r_lp_Energy>
43.966373

> <b_lp_Chiralities_Consistent>
1

> <s_lp_Variant>
sdf/inactives_sanitized.sdf:2-1

$$$$
sdf/inactives_sanitized.sdf:3
                    3D
 Schrodinger Suite 2020-1.
 44 46  0  0  1  0            999 V2000
   -0.4575    1.3397   -1.5859 O   0  0  0  0  0  0
   -0.0234   -0.1092    0.1041 N   0  0  0  0  0  0
   -9.3311   -0.6551    0.4773 N   0  0  0  0  0  0
    1.6563    0.1280    2.5945 N   0  3  0  0  0  0
   -2.3351    0.3246   -0.5075 C   0  0  0  0  0  0
   -5.1002   -0.0688   -0.1267 C   0  0  0  0  0  0
   -0.8563    0.5557   -0.7222 C   0  0  0  0  0  0
   -6.5621   -0.2719    0.0813 C   0  0  0  0  0  0
    1.4452   -0.0397    0.0782 C   0  0  2  0  0  0
   -2.8136   -0.8560    0.0792 C   0  0  0  0  0  0
   -3.2558    1.2993   -0.9106 C   0  0  0  0  0  0
   -4.1801   -1.0472    0.2660 C   0  0  0  0  0  0
   -4.6207    1.1046   -0.7188 C   0  0  0  0  0  0
    2.0768   -0.6619   -1.1736 C   0  0  0  0  0  0
   -7.3831    0.7769    0.5244 C   0  0  0  0  0  0
   -7.1631   -1.5176   -0.1583 C   0  0  0  0  0  0
    3.1759   -0.0363   -1.7721 C   0  0  0  0  0  0
    1.5572   -1.8351   -1.7369 C   0  0  0  0  0  0
    2.0522   -0.6730    1.3479 C   0  0  0  0  0  0
   -8.7479    0.5472    0.7088 C   0  0  0  0  0  0
   -8.5357   -1.6668    0.0490 C   0  0  0  0  0  0
    3.7543   -0.5798   -2.9161 C   0  0  0  0  0  0
    2.1362   -2.3785   -2.8803 C   0  0  0  0  0  0
    3.2325   -1.7488   -3.4646 C   0  0  0  0  0  0
   -0.4307   -0.7108    0.8045 H   0  0  0  0  0  0
    2.0657   -0.2864    3.4198 H   0  0  0  0  0  0
    0.6516    0.1367    2.6975 H   0  0  0  0  0  0
    1.7116    1.0210    0.0874 H   0  0  0  0  0  0
   -2.1381   -1.6395    0.3917 H   0  0  0  0  0  0
   -2.9236    2.2192   -1.3715 H   0  0  0  0  0  0
   -4.5215   -1.9635    0.7258 H   0  0  0  0  0  0
   -5.3078    1.8739   -1.0406 H   0  0  0  0  0  0
   -6.9727    1.7548    0.7308 H   0  0  0  0  0  0
   -6.5806   -2.3583   -0.5062 H   0  0  0  0  0  0
    3.5847    0.8720   -1.3538 H   0  0  0  0  0  0
    0.7070   -2.3297   -1.2902 H   0  0  0  0  0  0
    3.1427   -0.6423    1.3539 H   0  0  0  0  0  0
    1.7161   -1.6948    1.5297 H   0  0  0  0  0  0
   -9.3979    1.3388    1.0516 H   0  0  0  0  0  0
   -9.0197   -2.6154   -0.1314 H   0  0  0  0  0  0
    4.6031   -0.0965   -3.3774 H   0  0  0  0  0  0
    1.7364   -3.2838   -3.3131 H   0  0  0  0  0  0
    3.6812   -2.1701   -4.3524 H   0  0  0  0  0  0
    1.9818    1.0808    2.5128 H   0  0  0  0  0  0
  1  7  2  0  0  0
  2  7  1  0  0  0
  2  9  1  0  0  0
  2 25  1  0  0  0
  3 20  2  0  0  0
  3 21  1  0  0  0
  4 19  1  0  0  0
  4 26  1  0  0  0
  4 27  1  0  0  0
  4 44  1  0  0  0
  5  7  1  0  0  0
  5 10  2  0  0  0
  5 11  1  0  0  0
  6  8  1  0  0  0
  6 12  2  0  0  0
  6 13  1  0  0  0
  8 15  2  0  0  0
  8 16  1  0  0  0
  9 14  1  0  0  0
  9 19  1  0  0  0
  9 28  1  0  0  0
 10 12  1  0  0  0
 10 29  1  0  0  0
 11 13  2  0  0  0
 11 30  1  0  0  0
 12 31  1  0  0  0
 13 32  1  0  0  0
 14 17  2  0  0  0
 14 18  1  0  0  0
 15 20  1  0  0  0
 15 33  1  0  0  0
 16 21  2  0  0  0
 16 34  1  0  0  0
 17 22  1  0  0  0
 17 35  1  0  0  0
 18 23  2  0  0  0
 18 36  1  0  0  0
 19 37  1  0  0  0
 19 38  1  0  0  0
 20 39  1  0  0  0
 21 40  1  0  0  0
 22 24  2  0  0  0
 22 41  1  0  0  0
 23 24  1  0  0  0
 23 42  1  0  0  0
 24 43  1  0  0  0
M  CHG  1   4   1
M  END
> <chembl_id>
CHEMBL1990254

> <chembl_pref_name>
None

> <s_m_source_file>
sdf/inactives_sanitized.sdf

> <i_m_source_file_index>
3

> <i_lp_mmshare_version>
49012

> <i_m_ct_stereo_status>
1

> <i_f3d_flags>
0

> <s_epik_input>
W2NIXTFbY0hdW2NIXVtjSF1bY0hdYzFbQ0BIXShbQ0gyXVtOSDJdKVtOSF1DKD1PKWMyW2NIXVtjSF1jKFtjSF1bY0hdMiktYzNbY0hdW2NIXW5bY0hdW2NIXTM=

> <s_epik_cmdline>
J2VwaWtfcHl0aG9uJywgJy1waHQnLCAnMC41JywgJy1waCcsICc3LjUnLCAnLW50JywgJy1tYScsICcyMDAnLCAnLWltYWUnLCAnPGluZmlsZS5tYWU+JywgJy1vbWFlJywgJzxvdXRmaWxlLm1hZT4n

> <r_epik_Ionization_Penalty>
  0.0206

> <r_epik_Ionization_Penalty_Charging>
  0.0189

> <r_epik_Ionization_Penalty_Neutral>
  0.0017

> <r_epik_State_Penalty>
  0.0151

> <r_epik_Charging_Adjusted_Penalty>
0.0339714886201946

> <i_epik_Tot_Q>
1

> <i_epik_Tot_abs_Q>
1

> <s_lp_Force_Field>
OPLS3e

> <r_lp_Energy>
37.767565

> <b_lp_Chiralities_Consistent>
1

> <s_lp_Variant>
sdf/inactives_sanitized.sdf:3-1

$$$$
sdf/inactives_sanitized.sdf:4
                    3D
 Schrodinger Suite 2020-1.
 47 50  0  0  1  0            999 V2000
    0.2470   -4.6819    4.5653 Cl  0  0  0  0  0  0
    0.3990    1.3438   -1.2644 O   0  5  0  0  0  0
    1.0315   -1.6580   -2.9147 O   0  0  0  0  0  0
   -1.8314    3.3170    0.6518 N   0  0  0  0  0  0
   -0.2241   -0.8823   -1.1044 C   0  0  0  0  0  0
   -1.2253   -1.9489   -0.6295 C   0  0  2  0  0  0
   -0.4517    0.4458   -0.8937 C   0  0  0  0  0  0
   -2.7177    0.0218   -0.0113 C   0  0  0  0  0  0
   -1.6949    0.8897   -0.2493 C   0  0  0  0  0  0
   -2.6707   -1.3764   -0.6411 C   0  0  0  0  0  0
    1.0141   -1.4145   -1.7070 C   0  0  0  0  0  0
   -0.8611   -2.6401    0.6935 C   0  0  0  0  0  0
   -4.0329    0.4715    0.5041 C   0  0  0  0  0  0
    2.1581   -1.7842   -0.8112 C   0  0  0  0  0  0
   -1.7729    2.2366    0.2385 C   0  0  0  0  0  0
   -0.6363   -1.8852    1.8512 C   0  0  0  0  0  0
   -0.7481   -4.0342    0.7487 C   0  0  0  0  0  0
   -4.7212    1.5441   -0.0777 C   0  0  0  0  0  0
   -4.6076   -0.2060    1.5849 C   0  0  0  0  0  0
    3.0605   -2.7783   -1.2152 C   0  0  0  0  0  0
    2.3695   -1.1238    0.4084 C   0  0  0  0  0  0
   -0.2944   -2.5139    3.0446 C   0  0  0  0  0  0
   -0.4065   -4.6641    1.9424 C   0  0  0  0  0  0
   -0.1797   -3.9017    3.0862 C   0  0  0  0  0  0
   -5.9591    1.9398    0.4220 C   0  0  0  0  0  0
   -5.8457    0.1877    2.0856 C   0  0  0  0  0  0
    4.1345   -3.1277   -0.4004 C   0  0  0  0  0  0
    3.4424   -1.4754    1.2230 C   0  0  0  0  0  0
   -6.5157    1.2602    1.5025 C   0  0  0  0  0  0
    4.3189   -2.4774    0.8166 C   0  0  0  0  0  0
   -1.2199   -2.7596   -1.3625 H   0  0  0  0  0  0
   -2.9872   -1.2808   -1.6811 H   0  0  0  0  0  0
   -3.3650   -2.0676   -0.1606 H   0  0  0  0  0  0
   -0.7146   -0.8087    1.8298 H   0  0  0  0  0  0
   -0.9182   -4.6348   -0.1331 H   0  0  0  0  0  0
   -4.2998    2.0721   -0.9209 H   0  0  0  0  0  0
   -4.0919   -1.0380    2.0432 H   0  0  0  0  0  0
    2.9328   -3.2951   -2.1560 H   0  0  0  0  0  0
    1.7071   -0.3383    0.7414 H   0  0  0  0  0  0
   -0.1167   -1.9241    3.9319 H   0  0  0  0  0  0
   -0.3169   -5.7400    1.9769 H   0  0  0  0  0  0
   -6.4852    2.7688   -0.0276 H   0  0  0  0  0  0
   -6.2836   -0.3361    2.9225 H   0  0  0  0  0  0
    4.8218   -3.9005   -0.7118 H   0  0  0  0  0  0
    3.5946   -0.9701    2.1652 H   0  0  0  0  0  0
   -7.4759    1.5664    1.8905 H   0  0  0  0  0  0
    5.1516   -2.7494    1.4484 H   0  0  0  0  0  0
  1 24  1  0  0  0
  2  7  1  0  0  0
  3 11  2  0  0  0
  4 15  3  0  0  0
  5  6  1  0  0  0
  5  7  2  0  0  0
  5 11  1  0  0  0
  6 10  1  0  0  0
  6 12  1  0  0  0
  6 31  1  0  0  0
  7  9  1  0  0  0
  8  9  2  0  0  0
  8 10  1  0  0  0
  8 13  1  0  0  0
  9 15  1  0  0  0
 10 32  1  0  0  0
 10 33  1  0  0  0
 11 14  1  0  0  0
 12 16  2  0  0  0
 12 17  1  0  0  0
 13 18  2  0  0  0
 13 19  1  0  0  0
 14 20  2  0  0  0
 14 21  1  0  0  0
 16 22  1  0  0  0
 16 34  1  0  0  0
 17 23  2  0  0  0
 17 35  1  0  0  0
 18 25  1  0  0  0
 18 36  1  0  0  0
 19 26  2  0  0  0
 19 37  1  0  0  0
 20 27  1  0  0  0
 20 38  1  0  0  0
 21 28  2  0  0  0
 21 39  1  0  0  0
 22 24  2  0  0  0
 22 40  1  0  0  0
 23 24  1  0  0  0
 23 41  1  0  0  0
 25 29  2  0  0  0
 25 42  1  0  0  0
 26 29  1  0  0  0
 26 43  1  0  0  0
 27 30  2  0  0  0
 27 44  1  0  0  0
 28 30  1  0  0  0
 28 45  1  0  0  0
 29 46  1  0  0  0
 30 47  1  0  0  0
M  CHG  1   2  -1
M  END
> <chembl_id>
CHEMBL1978371

> <chembl_pref_name>
None

> <s_m_source_file>
sdf/inactives_sanitized.sdf

> <i_m_source_file_index>
4

> <i_lp_mmshare_version>
49012

> <i_m_ct_stereo_status>
1

> <i_f3d_flags>
0

> <s_epik_input>
W2NIXTFbY0hdW2NIXVtjSF1bY0hdYzFDKD1PKVtDQEBIXTJbQ0BASF0oYzNbY0hdW2NIXWMoQ2wpW2NIXVtjSF0zKVtDSDJdQyg9QyhDMj1PKUMjTiljNFtjSF1bY0hdW2NIXVtjSF1bY0hdNA==

> <s_epik_cmdline>
J2VwaWtfcHl0aG9uJywgJy1waHQnLCAnMC41JywgJy1waCcsICc3LjUnLCAnLW50JywgJy1tYScsICcyMDAnLCAnLWltYWUnLCAnPGluZmlsZS5tYWU+JywgJy1vbWFlJywgJzxvdXRmaWxlLm1hZT4n

> <r_lp_tautomer_probability>
1

> <r_epik_Ionization_Penalty>
  0.0000

> <r_epik_Ionization_Penalty_Charging>
  0.0000

> <r_epik_Ionization_Penalty_Neutral>
  0.0000

> <r_epik_State_Penalty>
 -0.0000

> <r_epik_Charging_Adjusted_Penalty>
0

> <i_epik_Tot_Q>
-1

> <i_epik_Tot_abs_Q>
1

> <s_lp_Force_Field>
OPLS3e

> <r_lp_Energy>
58.781873

> <b_lp_Chiralities_Consistent>
1

> <s_lp_Variant>
sdf/inactives_sanitized.sdf:4-1

$$$$
sdf/inactives_sanitized.sdf:5
                    3D
 Schrodinger Suite 2020-1.
 59 63  0  0  1  0            999 V2000
    4.2537    1.6020    1.3709 N   0  0  0  0  0  0
    2.3005    0.8847    0.2178 N   0  0  0  0  0  0
    0.2970    0.1524   -0.8409 N   0  0  0  0  0  0
   -2.9131    4.5808    0.3747 N   0  0  0  0  0  0
    2.1768   -1.2423   -0.8967 N   0  0  0  0  0  0
    3.0449    6.8822    2.5222 N   0  0  0  0  0  0
    2.2388    7.2177    1.4978 N   0  0  0  0  0  0
   -2.1558    6.8764    2.1224 N   0  3  0  0  0  0
    6.6708   -1.1953    0.8907 N   0  0  0  0  0  0
    3.5874    0.6362    0.5864 C   0  0  0  0  0  0
    2.8828    5.0633    1.2577 C   0  0  0  0  0  0
    3.9552    2.9407    1.6856 C   0  0  0  0  0  0
    3.4826    5.5751    2.4315 C   0  0  0  0  0  0
    4.2147   -0.5770    0.2295 C   0  0  0  0  0  0
    1.6426   -0.0601   -0.5050 C   0  0  0  0  0  0
    3.1241    3.7347    0.8835 C   0  0  0  0  0  0
   -0.5067    1.2761   -0.5947 C   0  0  0  0  0  0
   -2.1146    3.4977    0.0081 C   0  0  0  0  0  0
    4.5529    3.4868    2.8252 C   0  0  0  0  0  0
    4.3274    4.8035    3.2335 C   0  0  0  0  0  0
    3.4602   -1.4836   -0.5248 C   0  0  0  0  0  0
    2.1373    6.1606    0.7344 C   0  0  0  0  0  0
   -2.5705    2.1950    0.2515 C   0  0  0  0  0  0
   -0.8536    3.6664   -0.5831 C   0  0  0  0  0  0
   -1.7764    1.0920   -0.0509 C   0  0  0  0  0  0
   -0.0580    2.5658   -0.8850 C   0  0  0  0  0  0
    5.5853   -0.9222    0.5981 C   0  0  0  0  0  0
   -3.3569    4.7027    1.7751 C   0  0  0  0  0  0
   -2.7055    5.9417   -0.1553 C   0  0  0  0  0  0
   -2.3370    5.4433    2.6673 C   0  0  0  0  0  0
   -1.6878    6.7800    0.6553 C   0  0  0  0  0  0
   -1.1313    7.6896    2.9498 C   0  0  0  0  0  0
   -1.6922    8.0449    4.3357 C   0  0  0  0  0  0
    5.1121    1.2675    1.7846 H   0  0  0  0  0  0
   -0.1518   -0.6102   -1.3271 H   0  0  0  0  0  0
    3.2707    7.5602    3.2358 H   0  0  0  0  0  0
    2.6899    3.3525   -0.0257 H   0  0  0  0  0  0
    5.2049    2.8718    3.4297 H   0  0  0  0  0  0
    4.7912    5.1983    4.1255 H   0  0  0  0  0  0
    3.8704   -2.4327   -0.8413 H   0  0  0  0  0  0
    1.5448    6.1828   -0.1680 H   0  0  0  0  0  0
   -3.5449    2.0271    0.6872 H   0  0  0  0  0  0
   -0.4650    4.6475   -0.8074 H   0  0  0  0  0  0
   -2.1433    0.0984    0.1633 H   0  0  0  0  0  0
    0.9112    2.7208   -1.3355 H   0  0  0  0  0  0
   -4.3126    5.2296    1.7969 H   0  0  0  0  0  0
   -3.5605    3.7204    2.2021 H   0  0  0  0  0  0
   -2.3971    5.8863   -1.2001 H   0  0  0  0  0  0
   -3.6664    6.4591   -0.1661 H   0  0  0  0  0  0
   -1.3562    4.9631    2.6780 H   0  0  0  0  0  0
   -2.7086    5.5317    3.6875 H   0  0  0  0  0  0
   -1.6307    7.8030    0.2809 H   0  0  0  0  0  0
   -0.6887    6.3458    0.6662 H   0  0  0  0  0  0
   -0.2169    7.0958    3.0000 H   0  0  0  0  0  0
   -0.9413    8.5964    2.3730 H   0  0  0  0  0  0
   -1.0062    8.7072    4.8645 H   0  0  0  0  0  0
   -1.8298    7.1642    4.9625 H   0  0  0  0  0  0
   -2.6502    8.5604    4.2582 H   0  0  0  0  0  0
   -3.0502    7.3461    2.1355 H   0  0  0  0  0  0
  1 10  1  0  0  0
  1 12  1  0  0  0
  1 34  1  0  0  0
  2 10  2  0  0  0
  2 15  1  0  0  0
  3 15  1  0  0  0
  3 17  1  0  0  0
  3 35  1  0  0  0
  4 18  1  0  0  0
  4 28  1  0  0  0
  4 29  1  0  0  0
  5 15  2  0  0  0
  5 21  1  0  0  0
  6  7  1  0  0  0
  6 13  1  0  0  0
  6 36  1  0  0  0
  7 22  2  0  0  0
  8 30  1  0  0  0
  8 31  1  0  0  0
  8 32  1  0  0  0
  8 59  1  0  0  0
  9 27  3  0  0  0
 10 14  1  0  0  0
 11 13  2  0  0  0
 11 16  1  0  0  0
 11 22  1  0  0  0
 12 16  2  0  0  0
 12 19  1  0  0  0
 13 20  1  0  0  0
 14 21  2  0  0  0
 14 27  1  0  0  0
 16 37  1  0  0  0
 17 25  2  0  0  0
 17 26  1  0  0  0
 18 23  2  0  0  0
 18 24  1  0  0  0
 19 20  2  0  0  0
 19 38  1  0  0  0
 20 39  1  0  0  0
 21 40  1  0  0  0
 22 41  1  0  0  0
 23 25  1  0  0  0
 23 42  1  0  0  0
 24 26  2  0  0  0
 24 43  1  0  0  0
 25 44  1  0  0  0
 26 45  1  0  0  0
 28 30  1  0  0  0
 28 46  1  0  0  0
 28 47  1  0  0  0
 29 31  1  0  0  0
 29 48  1  0  0  0
 29 49  1  0  0  0
 30 50  1  0  0  0
 30 51  1  0  0  0
 31 52  1  0  0  0
 31 53  1  0  0  0
 32 33  1  0  0  0
 32 54  1  0  0  0
 32 55  1  0  0  0
 33 56  1  0  0  0
 33 57  1  0  0  0
 33 58  1  0  0  0
M  CHG  1   8   1
M  END
> <chembl_id>
CHEMBL1973516

> <chembl_pref_name>
None

> <s_m_source_file>
sdf/inactives_sanitized.sdf

> <i_m_source_file_index>
5

> <i_lp_mmshare_version>
49012

> <i_m_ct_stereo_status>
1

> <i_f3d_flags>
0

> <s_epik_input>
W2NIXTFuW25IXWMoYzEyKVtjSF1bY0hdYyhbY0hdMilbTkhdYzNuYyhuW2NIXWMzQyNOKVtOSF1jNFtjSF1bY0hdYyhbY0hdW2NIXTQpTjVbQ0gyXVtDSDJdTihbQ0gyXVtDSDJdNSlbQ0gyXVtDSDNd

> <s_epik_cmdline>
J2VwaWtfcHl0aG9uJywgJy1waHQnLCAnMC41JywgJy1waCcsICc3LjUnLCAnLW50JywgJy1tYScsICcyMDAnLCAnLWltYWUnLCAnPGluZmlsZS5tYWU+JywgJy1vbWFlJywgJzxvdXRmaWxlLm1hZT4n

> <r_lp_tautomer_probability>
0.983170504884488

> <r_epik_Ionization_Penalty>
  0.2943

> <r_epik_Ionization_Penalty_Charging>
  0.2911

> <r_epik_Ionization_Penalty_Neutral>
  0.0031

> <r_epik_State_Penalty>
  0.2928

> <r_epik_Charging_Adjusted_Penalty>
0.583982106531941

> <i_epik_Tot_Q>
1

> <i_epik_Tot_abs_Q>
1

> <s_lp_Force_Field>
OPLS3e

> <r_lp_Energy>
50.696094

> <b_lp_Chiralities_Consistent>
1

> <s_lp_Variant>
sdf/inactives_sanitized.sdf:5-1

$$$$
sdf/inactives_sanitized.sdf:5
                    3D
 Schrodinger Suite 2020-1.
 58 62  0  0  1  0            999 V2000
    4.3448    1.6688    1.2836 N   0  0  0  0  0  0
    2.2691    0.9840    0.3409 N   0  0  0  0  0  0
    0.1789    0.3596   -0.6037 N   0  0  0  0  0  0
   -2.6397    5.1455    0.1799 N   0  0  0  0  0  0
    1.9255   -1.2092   -0.5728 N   0  0  0  0  0  0
    3.4851    6.9296    2.8130 N   0  0  0  0  0  0
    2.2966    7.2066    2.2450 N   0  0  0  0  0  0
   -3.6275    7.9052    0.5571 N   0  0  0  0  0  0
    6.5323   -1.3256    0.9008 N   0  0  0  0  0  0
    3.5566    0.6830    0.6496 C   0  0  0  0  0  0
    2.8788    5.0800    1.7435 C   0  0  0  0  0  0
    4.1297    3.0096    1.6641 C   0  0  0  0  0  0
    3.9002    5.6399    2.5444 C   0  0  0  0  0  0
    4.0780   -0.5960    0.3564 C   0  0  0  0  0  0
    1.4992    0.0368   -0.2527 C   0  0  0  0  0  0
    3.0000    3.7582    1.2944 C   0  0  0  0  0  0
   -0.5465    1.5395   -0.3629 C   0  0  0  0  0  0
   -1.9620    3.9379    0.0236 C   0  0  0  0  0  0
    5.1239    3.6027    2.4495 C   0  0  0  0  0  0
    5.0395    4.9188    2.9089 C   0  0  0  0  0  0
    3.2131   -1.5093   -0.2604 C   0  0  0  0  0  0
    1.9204    6.1284    1.6069 C   0  0  0  0  0  0
   -2.0639    3.2299   -1.1818 C   0  0  0  0  0  0
   -1.1625    3.4066    1.0458 C   0  0  0  0  0  0
   -1.3681    2.0385   -1.3723 C   0  0  0  0  0  0
   -0.4659    2.2170    0.8574 C   0  0  0  0  0  0
    5.4476   -1.0034    0.6600 C   0  0  0  0  0  0
   -2.8895    5.7345    1.5091 C   0  0  0  0  0  0
   -2.4751    6.2069   -0.8311 C   0  0  0  0  0  0
   -3.9656    6.8455    1.5115 C   0  0  0  0  0  0
   -3.5700    7.2957   -0.7720 C   0  0  0  0  0  0
   -4.6153    8.9896    0.5574 C   0  0  0  0  0  0
   -4.5933    9.8198    1.8531 C   0  0  0  0  0  0
    5.2629    1.3326    1.5353 H   0  0  0  0  0  0
   -0.3196   -0.3632   -1.1019 H   0  0  0  0  0  0
    3.9628    7.6314    3.3600 H   0  0  0  0  0  0
    2.2206    3.3597    0.6684 H   0  0  0  0  0  0
    5.9962    3.0269    2.7259 H   0  0  0  0  0  0
    5.8204    5.3489    3.5190 H   0  0  0  0  0  0
    3.5381   -2.5079   -0.5185 H   0  0  0  0  0  0
    0.9857    6.1022    1.0655 H   0  0  0  0  0  0
   -2.6860    3.5978   -1.9844 H   0  0  0  0  0  0
   -1.0557    3.9163    1.9918 H   0  0  0  0  0  0
   -1.4548    1.5196   -2.3164 H   0  0  0  0  0  0
    0.1454    1.8366    1.6628 H   0  0  0  0  0  0
   -3.1977    4.9519    2.2035 H   0  0  0  0  0  0
   -1.9587    6.1658    1.8818 H   0  0  0  0  0  0
   -1.5099    6.6888   -0.6640 H   0  0  0  0  0  0
   -2.4548    5.7905   -1.8377 H   0  0  0  0  0  0
   -4.0242    7.2568    2.5188 H   0  0  0  0  0  0
   -4.9474    6.4226    1.2891 H   0  0  0  0  0  0
   -4.5378    6.8712   -1.0477 H   0  0  0  0  0  0
   -3.3426    8.0620   -1.5147 H   0  0  0  0  0  0
   -4.3896    9.6659   -0.2691 H   0  0  0  0  0  0
   -5.6183    8.5985    0.3761 H   0  0  0  0  0  0
   -5.2387   10.6931    1.7566 H   0  0  0  0  0  0
   -3.5885   10.1788    2.0793 H   0  0  0  0  0  0
   -4.9503    9.2515    2.7117 H   0  0  0  0  0  0
  1 10  1  0  0  0
  1 12  1  0  0  0
  1 34  1  0  0  0
  2 10  2  0  0  0
  2 15  1  0  0  0
  3 15  1  0  0  0
  3 17  1  0  0  0
  3 35  1  0  0  0
  4 18  1  0  0  0
  4 28  1  0  0  0
  4 29  1  0  0  0
  5 15  2  0  0  0
  5 21  1  0  0  0
  6  7  1  0  0  0
  6 13  1  0  0  0
  6 36  1  0  0  0
  7 22  2  0  0  0
  8 30  1  0  0  0
  8 31  1  0  0  0
  8 32  1  0  0  0
  9 27  3  0  0  0
 10 14  1  0  0  0
 11 13  2  0  0  0
 11 16  1  0  0  0
 11 22  1  0  0  0
 12 16  2  0  0  0
 12 19  1  0  0  0
 13 20  1  0  0  0
 14 21  2  0  0  0
 14 27  1  0  0  0
 16 37  1  0  0  0
 17 25  2  0  0  0
 17 26  1  0  0  0
 18 23  2  0  0  0
 18 24  1  0  0  0
 19 20  2  0  0  0
 19 38  1  0  0  0
 20 39  1  0  0  0
 21 40  1  0  0  0
 22 41  1  0  0  0
 23 25  1  0  0  0
 23 42  1  0  0  0
 24 26  2  0  0  0
 24 43  1  0  0  0
 25 44  1  0  0  0
 26 45  1  0  0  0
 28 30  1  0  0  0
 28 46  1  0  0  0
 28 47  1  0  0  0
 29 31  1  0  0  0
 29 48  1  0  0  0
 29 49  1  0  0  0
 30 50  1  0  0  0
 30 51  1  0  0  0
 31 52  1  0  0  0
 31 53  1  0  0  0
 32 33  1  0  0  0
 32 54  1  0  0  0
 32 55  1  0  0  0
 33 56  1  0  0  0
 33 57  1  0  0  0
 33 58  1  0  0  0
M  END
> <chembl_id>
CHEMBL1973516

> <chembl_pref_name>
None

> <s_m_source_file>
sdf/inactives_sanitized.sdf

> <i_m_source_file_index>
5

> <i_lp_mmshare_version>
49012

> <i_m_ct_stereo_status>
1

> <i_f3d_flags>
0

> <s_epik_input>
W2NIXTFuW25IXWMoYzEyKVtjSF1bY0hdYyhbY0hdMilbTkhdYzNuYyhuW2NIXWMzQyNOKVtOSF1jNFtjSF1bY0hdYyhbY0hdW2NIXTQpTjVbQ0gyXVtDSDJdTihbQ0gyXVtDSDJdNSlbQ0gyXVtDSDNd

> <s_epik_cmdline>
J2VwaWtfcHl0aG9uJywgJy1waHQnLCAnMC41JywgJy1waCcsICc3LjUnLCAnLW50JywgJy1tYScsICcyMDAnLCAnLWltYWUnLCAnPGluZmlsZS5tYWU+JywgJy1vbWFlJywgJzxvdXRmaWxlLm1hZT4n

> <r_lp_tautomer_probability>
0.983170504884488

> <r_epik_Ionization_Penalty>
  0.5883

> <r_epik_Ionization_Penalty_Charging>
  0.0000

> <r_epik_Ionization_Penalty_Neutral>
  0.5883

> <r_epik_State_Penalty>
  0.5803

> <r_epik_Charging_Adjusted_Penalty>
0.580348970718937

> <i_epik_Tot_Q>
0

> <i_epik_Tot_abs_Q>
0

> <s_lp_Force_Field>
OPLS3e

> <r_lp_Energy>
55.431317

> <b_lp_Chiralities_Consistent>
1

> <s_lp_Variant>
sdf/inactives_sanitized.sdf:5-2

$$$$
sdf/inactives_sanitized.sdf:6
                    3D
 Schrodinger Suite 2020-1.
 34 37  0  0  1  0            999 V2000
    2.3253   -0.9637   -1.1259 S   0  0  0  0  0  0
    0.0611    0.0278    0.0140 N   0  0  0  0  0  0
   -2.0185    0.9230   -0.0217 N   0  0  0  0  0  0
    2.1885    0.6814    0.8541 N   0  0  0  0  0  0
   -0.2274    2.4393   -0.0299 N   0  0  0  0  0  0
   -1.6064   -5.8144    0.0243 N   0  0  0  0  0  0
   -0.8253   -1.0384    0.0097 C   0  0  0  0  0  0
    1.4418   -0.0057    0.0225 C   0  0  0  0  0  0
   -2.1100   -0.4396   -0.0129 C   0  0  0  0  0  0
   -0.7350    1.1684   -0.0084 C   0  0  0  0  0  0
    3.7956   -0.3977   -0.3933 C   0  0  0  0  0  0
    3.4770    0.4835    0.6474 C   0  0  0  0  0  0
   -0.6590   -2.4300    0.0261 C   0  0  0  0  0  0
   -3.2579   -1.2431   -0.0242 C   0  0  0  0  0  0
   -1.8216   -3.2103    0.0107 C   0  0  0  0  0  0
   -3.0930   -2.6281   -0.0137 C   0  0  0  0  0  0
    5.2000   -0.7346   -0.8682 C   0  0  0  0  0  0
    4.5338    1.1718    1.5025 C   0  0  0  0  0  0
    6.2162   -0.2710    0.2023 C   0  0  0  0  0  0
    5.8939    1.1305    0.7650 C   0  0  0  0  0  0
   -1.7017   -4.6610    0.0185 C   0  0  0  0  0  0
    0.7665    2.6136    0.0072 H   0  0  0  0  0  0
   -0.8323    3.2474   -0.0572 H   0  0  0  0  0  0
    0.3236   -2.8805    0.0484 H   0  0  0  0  0  0
   -4.2457   -0.8060   -0.0423 H   0  0  0  0  0  0
   -3.9768   -3.2514   -0.0250 H   0  0  0  0  0  0
    5.3134   -1.8019   -1.0617 H   0  0  0  0  0  0
    5.4042   -0.2149   -1.8048 H   0  0  0  0  0  0
    4.2615    2.2041    1.7276 H   0  0  0  0  0  0
    4.6258    0.6559    2.4592 H   0  0  0  0  0  0
    6.2351   -0.9901    1.0230 H   0  0  0  0  0  0
    7.2205   -0.2791   -0.2233 H   0  0  0  0  0  0
    5.8911    1.8549   -0.0513 H   0  0  0  0  0  0
    6.6853    1.4491    1.4444 H   0  0  0  0  0  0
  1  8  1  0  0  0
  1 11  1  0  0  0
  2  7  1  0  0  0
  2  8  1  0  0  0
  2 10  1  0  0  0
  3  9  1  0  0  0
  3 10  2  0  0  0
  4  8  2  0  0  0
  4 12  1  0  0  0
  5 10  1  0  0  0
  5 22  1  0  0  0
  5 23  1  0  0  0
  6 21  3  0  0  0
  7  9  2  0  0  0
  7 13  1  0  0  0
  9 14  1  0  0  0
 11 12  2  0  0  0
 11 17  1  0  0  0
 12 18  1  0  0  0
 13 15  2  0  0  0
 13 24  1  0  0  0
 14 16  2  0  0  0
 14 25  1  0  0  0
 15 16  1  0  0  0
 15 21  1  0  0  0
 16 26  1  0  0  0
 17 19  1  0  0  0
 17 27  1  0  0  0
 17 28  1  0  0  0
 18 20  1  0  0  0
 18 29  1  0  0  0
 18 30  1  0  0  0
 19 20  1  0  0  0
 19 31  1  0  0  0
 19 32  1  0  0  0
 20 33  1  0  0  0
 20 34  1  0  0  0
M  END
> <chembl_id>
CHEMBL1996345

> <chembl_pref_name>
None

> <s_m_source_file>
sdf/inactives_sanitized.sdf

> <i_m_source_file_index>
6

> <i_lp_mmshare_version>
49012

> <i_m_ct_stereo_status>
1

> <i_f3d_flags>
0

> <s_epik_input>
W0NIMl0xW0NIMl1bQ0gyXVtDSDJdYyhjMTIpbmMoczIpLW4zYyhbTkgyXSluYyhjMzQpW2NIXVtjSF1jKFtjSF00KUMjTg==

> <s_epik_cmdline>
J2VwaWtfcHl0aG9uJywgJy1waHQnLCAnMC41JywgJy1waCcsICc3LjUnLCAnLW50JywgJy1tYScsICcyMDAnLCAnLWltYWUnLCAnPGluZmlsZS5tYWU+JywgJy1vbWFlJywgJzxvdXRmaWxlLm1hZT4n

> <r_lp_tautomer_probability>
1

> <r_epik_Ionization_Penalty>
  0.0004

> <r_epik_Ionization_Penalty_Charging>
  0.0000

> <r_epik_Ionization_Penalty_Neutral>
  0.0004

> <r_epik_State_Penalty>
 -0.0000

> <r_epik_Charging_Adjusted_Penalty>
0

> <i_epik_Tot_Q>
0

> <i_epik_Tot_abs_Q>
0

> <s_lp_Force_Field>
OPLS3e

> <r_lp_Energy>
19.895743

> <b_lp_Chiralities_Consistent>
1

> <s_lp_Variant>
sdf/inactives_sanitized.sdf:6-1

$$$$
sdf/inactives_sanitized.sdf:7
                    3D
 Schrodinger Suite 2020-1.
 71 74  0  0  1  0            999 V2000
   -1.6092    2.6361   -0.4054 C   0  0  0  0  0  0
   -0.8623    1.6378    0.2162 C   0  0  0  0  0  0
   -1.4113    0.9488    1.3080 C   0  0  0  0  0  0
   -2.8864    2.9717    0.0343 C   0  0  0  0  0  0
   -3.4625    2.2945    1.1420 C   0  0  0  0  0  0
   -2.7067    1.2648    1.7841 C   0  0  0  0  0  0
   -3.1987    0.5738    2.8510 N   0  0  0  0  0  0
   -4.4395    0.9134    3.2746 C   0  0  0  0  0  0
   -5.2417    1.8674    2.7499 N   0  0  0  0  0  0
   -4.7585    2.5604    1.6861 C   0  0  0  0  0  0
   -5.5670    3.5589    1.1054 N   0  0  0  0  0  0
   -6.7916    4.0545    1.4963 C   0  0  0  0  0  0
   -7.5425    3.8519    2.6693 C   0  0  0  0  0  0
   -8.7042    4.6022    2.5473 C   0  0  0  0  0  0
   -8.5564    5.1989    1.3248 N   0  0  0  0  0  0
   -7.4211    4.8829    0.6941 N   0  0  0  0  0  0
   -9.9218    4.8464    3.4252 C   0  0  0  0  0  0
  -10.0322    3.9100    4.6389 C   0  0  0  0  0  0
  -10.2281    4.5165    5.8300 N   0  0  0  0  0  0
   -9.9704    2.6916    4.4689 O   0  0  0  0  0  0
  -10.3424    3.9432    7.1100 C   0  0  0  0  0  0
  -10.8957    4.7539    8.1071 C   0  0  0  0  0  0
  -11.0409    4.2765    9.4100 C   0  0  0  0  0  0
  -10.6252    2.9850    9.7301 C   0  0  0  0  0  0
  -10.0594    2.1721    8.7487 C   0  0  0  0  0  0
   -9.9138    2.6462    7.4442 C   0  0  0  0  0  0
   -9.6455    0.9238    9.0634 F   0  0  0  0  0  0
    0.3950    1.3992   -0.3035 O   0  0  0  0  0  0
    1.2221    0.3988    0.2858 C   0  0  0  0  0  0
    2.5869    0.3817   -0.4187 C   0  0  0  0  0  0
    2.4883    0.0501   -1.9202 C   0  0  0  0  0  0
    3.8825    0.1518   -2.5884 N   0  3  2  0  0  0
    3.8182    0.4734   -4.1053 C   0  0  0  0  0  0
    4.7526   -1.0995   -2.3029 C   0  0  0  0  0  0
    6.2504   -0.7794   -2.4294 C   0  0  0  0  0  0
    3.1420    1.8310   -4.3975 C   0  0  0  0  0  0
    3.4947    2.8434   -3.4691 O   0  0  0  0  0  0
    5.1045    3.5582   -3.4232 P   0  0  0  0  0  0
    5.0102    4.7135   -2.4110 O   0  0  0  0  0  0
    6.0553    2.4391   -2.9616 O   0  5  0  0  0  0
    5.3926    4.0363   -4.8577 O   0  5  0  0  0  0
   -1.1875    3.1664   -1.2472 H   0  0  0  0  0  0
   -0.8612    0.1672    1.8109 H   0  0  0  0  0  0
   -3.4358    3.7533   -0.4698 H   0  0  0  0  0  0
   -4.8294    0.3656    4.1199 H   0  0  0  0  0  0
   -5.1275    3.9701    0.2950 H   0  0  0  0  0  0
   -7.2787    3.2350    3.5149 H   0  0  0  0  0  0
   -9.2306    5.8297    0.9157 H   0  0  0  0  0  0
   -9.9342    5.8890    3.7487 H   0  0  0  0  0  0
  -10.8351    4.7150    2.8433 H   0  0  0  0  0  0
  -10.3547    5.5177    5.8074 H   0  0  0  0  0  0
  -11.2221    5.7585    7.8782 H   0  0  0  0  0  0
  -11.4740    4.9085   10.1713 H   0  0  0  0  0  0
  -10.7363    2.6162   10.7391 H   0  0  0  0  0  0
   -9.4531    1.9942    6.7189 H   0  0  0  0  0  0
    1.3730    0.6131    1.3455 H   0  0  0  0  0  0
    0.7490   -0.5819    0.2084 H   0  0  0  0  0  0
    3.0679    1.3534   -0.2950 H   0  0  0  0  0  0
    3.2261   -0.3364    0.0926 H   0  0  0  0  0  0
    2.1052   -0.9493   -2.1314 H   0  0  0  0  0  0
    1.8463    0.7811   -2.4066 H   0  0  0  0  0  0
    4.8493    0.4933   -4.4541 H   0  0  0  0  0  0
    3.3007   -0.3623   -4.5784 H   0  0  0  0  0  0
    4.5320   -1.4160   -1.2848 H   0  0  0  0  0  0
    4.4157   -1.8778   -2.9893 H   0  0  0  0  0  0
    6.8502   -1.6499   -2.1637 H   0  0  0  0  0  0
    6.5383    0.0303   -1.7577 H   0  0  0  0  0  0
    6.5346   -0.4926   -3.4411 H   0  0  0  0  0  0
    3.3959    2.1627   -5.4050 H   0  0  0  0  0  0
    2.0576    1.7238   -4.3921 H   0  0  0  0  0  0
    4.3470    0.9421   -2.1601 H   0  0  0  0  0  0
  1  4  2  0  0  0
  1  2  1  0  0  0
  1 42  1  0  0  0
  2  3  2  0  0  0
  2 28  1  0  0  0
  3  6  1  0  0  0
  3 43  1  0  0  0
  4  5  1  0  0  0
  4 44  1  0  0  0
  5 10  2  0  0  0
  5  6  1  0  0  0
  6  7  2  0  0  0
  7  8  1  0  0  0
  8  9  2  0  0  0
  8 45  1  0  0  0
  9 10  1  0  0  0
 10 11  1  0  0  0
 11 12  1  0  0  0
 11 46  1  0  0  0
 12 13  1  0  0  0
 12 16  2  0  0  0
 13 14  2  0  0  0
 13 47  1  0  0  0
 14 15  1  0  0  0
 14 17  1  0  0  0
 15 16  1  0  0  0
 15 48  1  0  0  0
 17 18  1  0  0  0
 17 49  1  0  0  0
 17 50  1  0  0  0
 18 20  2  0  0  0
 18 19  1  0  0  0
 19 21  1  0  0  0
 19 51  1  0  0  0
 21 22  2  0  0  0
 21 26  1  0  0  0
 22 23  1  0  0  0
 22 52  1  0  0  0
 23 24  2  0  0  0
 23 53  1  0  0  0
 24 25  1  0  0  0
 24 54  1  0  0  0
 25 26  2  0  0  0
 25 27  1  0  0  0
 26 55  1  0  0  0
 28 29  1  0  0  0
 29 30  1  0  0  0
 29 56  1  0  0  0
 29 57  1  0  0  0
 30 31  1  0  0  0
 30 58  1  0  0  0
 30 59  1  0  0  0
 31 32  1  0  0  0
 31 60  1  0  0  0
 31 61  1  0  0  0
 32 33  1  0  0  0
 32 34  1  0  0  0
 32 71  1  0  0  0
 33 36  1  0  0  0
 33 62  1  0  0  0
 33 63  1  0  0  0
 34 35  1  0  0  0
 34 64  1  0  0  0
 34 65  1  0  0  0
 35 66  1  0  0  0
 35 67  1  0  0  0
 35 68  1  0  0  0
 36 37  1  0  0  0
 36 69  1  0  0  0
 36 70  1  0  0  0
 37 38  1  0  0  0
 38 39  2  0  0  0
 38 40  1  0  0  0
 38 41  1  0  0  0
M  CHG  3  32   1  40  -1  41  -1
M  END
> <chembl_id>
CHEMBL415049

> <chembl_pref_name>
BARASERTIB

> <s_m_source_file>
sdf/inactives_sanitized.sdf

> <i_m_source_file_index>
7

> <i_lp_mmshare_version>
49012

> <i_m_ct_stereo_status>
1

> <i_f3d_flags>
0

> <s_epik_input>
Tz1QKFtPSF0pKFtPSF0pT1tDSDJdW0NIMl1OKFtDSDJdW0NIM10pW0NIMl1bQ0gyXVtDSDJdT2MoW2NIXVtjSF0xKVtjSF1jKGMxMiluW2NIXW5jMltOSF1jM1tjSF1jKFtuSF1uMylbQ0gyXUMoPU8pW05IXWM0W2NIXVtjSF1bY0hdYyhGKVtjSF00

> <s_epik_cmdline>
J2VwaWtfcHl0aG9uJywgJy1waHQnLCAnMC41JywgJy1waCcsICc3LjUnLCAnLW50JywgJy1tYScsICcyMDAnLCAnLWltYWUnLCAnPGluZmlsZS5tYWU+JywgJy1vbWFlJywgJzxvdXRmaWxlLm1hZT4n

> <r_lp_tautomer_probability>
0.842584379834229

> <r_epik_Ionization_Penalty>
  0.0290

> <r_epik_Ionization_Penalty_Charging>
  0.0280

> <r_epik_Ionization_Penalty_Neutral>
  0.0010

> <r_epik_State_Penalty>
  0.0228

> <r_epik_Charging_Adjusted_Penalty>
0.0508233225952936

> <i_epik_Tot_Q>
-1

> <i_epik_Tot_abs_Q>
3

> <s_lp_Force_Field>
OPLS3e

> <r_lp_Energy>
30.236107

> <b_lp_Chiralities_Consistent>
1

> <s_lp_Variant>
sdf/inactives_sanitized.sdf:7-1

$$$$
sdf/inactives_sanitized.sdf:8
                    3D
 Schrodinger Suite 2020-1.
 63 67  0  0  1  0            999 V2000
   -4.2787    2.1974   -0.2326 O   0  0  0  0  0  0
   -2.2564    1.0834   -0.2491 N   0  0  0  0  0  0
   -0.2407    2.2287   -0.1206 N   0  0  0  0  0  0
   -0.1429   -0.1317   -0.2715 N   0  0  0  0  0  0
    1.7016    6.7921    0.4728 N   0  0  0  0  0  0
    1.2766   -1.0860    2.1702 N   0  3  0  0  0  0
   -2.2880    3.4713   -0.0418 C   0  0  0  0  0  0
   -0.9199    3.4130   -0.0563 C   0  0  0  0  0  0
   -3.0442    2.2171   -0.1787 C   0  0  0  0  0  0
   -3.0431    4.7581   -0.0030 C   0  0  0  0  0  0
   -0.8667    1.1031   -0.2117 C   0  0  0  0  0  0
   -0.0129    4.5776    0.1318 C   0  0  0  0  0  0
   -2.7603    5.7701   -0.9275 C   0  0  0  0  0  0
   -3.4485    7.0073   -0.8961 C   0  0  0  0  0  0
   -4.0286    4.9829    0.9637 C   0  0  0  0  0  0
   -4.4515    7.2186    0.0971 C   0  0  0  0  0  0
   -4.7277    6.1851    1.0226 C   0  0  0  0  0  0
    1.0635    4.8012   -0.7419 C   0  0  0  0  0  0
   -0.2065    5.4879    1.1827 C   0  0  0  0  0  0
   -3.0155   -0.1789   -0.3836 C   0  0  0  0  0  0
   -3.1684    8.0414   -1.8242 C   0  0  0  0  0  0
   -5.1414    8.4564    0.1290 C   0  0  0  0  0  0
    1.3198   -0.1605   -0.1780 C   0  0  0  0  0  0
    1.8887    5.9086   -0.5391 C   0  0  0  0  0  0
    0.6621    6.5721    1.3160 C   0  0  0  0  0  0
   -3.8643    9.2462   -1.7654 C   0  0  0  0  0  0
   -4.8421    9.4520   -0.7977 C   0  0  0  0  0  0
    1.8436    0.0203    1.2669 C   0  0  2  0  0  0
    3.3853    0.0258    1.3584 C   0  0  0  0  0  0
    3.9206    0.2413    2.7696 C   0  0  0  0  0  0
    3.8634    1.5138    3.3453 C   0  0  0  0  0  0
    4.4633   -0.8288    3.4868 C   0  0  0  0  0  0
    4.3441    1.7149    4.6365 C   0  0  0  0  0  0
    4.9446   -0.6266    4.7776 C   0  0  0  0  0  0
    4.8823    0.6438    5.3467 C   0  0  0  0  0  0
   -0.5732   -0.9088    0.2074 H   0  0  0  0  0  0
    1.5731   -1.9930    1.8392 H   0  0  0  0  0  0
    0.2674   -1.0517    2.1754 H   0  0  0  0  0  0
   -2.0044    5.6165   -1.6847 H   0  0  0  0  0  0
   -4.2548    4.2159    1.6903 H   0  0  0  0  0  0
   -5.4841    6.3346    1.7796 H   0  0  0  0  0  0
    1.2542    4.1308   -1.5675 H   0  0  0  0  0  0
   -1.0166    5.3593    1.8859 H   0  0  0  0  0  0
   -2.3877   -1.0612   -0.5044 H   0  0  0  0  0  0
   -3.6721   -0.1433   -1.2549 H   0  0  0  0  0  0
   -3.6376   -0.3458    0.4974 H   0  0  0  0  0  0
   -2.4102    7.8901   -2.5790 H   0  0  0  0  0  0
   -5.9022    8.6242    0.8777 H   0  0  0  0  0  0
    1.6607   -1.1182   -0.5731 H   0  0  0  0  0  0
    1.7468    0.6038   -0.8302 H   0  0  0  0  0  0
    2.7218    6.1021   -1.1989 H   0  0  0  0  0  0
    0.5304    7.2866    2.1152 H   0  0  0  0  0  0
   -3.6431   10.0278   -2.4773 H   0  0  0  0  0  0
   -5.3736   10.3919   -0.7654 H   0  0  0  0  0  0
    1.4401    0.9313    1.7129 H   0  0  0  0  0  0
    3.7948   -0.8959    0.9407 H   0  0  0  0  0  0
    3.7834    0.8203    0.7245 H   0  0  0  0  0  0
    3.4458    2.3452    2.7955 H   0  0  0  0  0  0
    4.5136   -1.8150    3.0485 H   0  0  0  0  0  0
    4.3004    2.6967    5.0848 H   0  0  0  0  0  0
    5.3653   -1.4505    5.3352 H   0  0  0  0  0  0
    5.2562    0.8001    6.3479 H   0  0  0  0  0  0
    1.6113   -0.9606    3.1152 H   0  0  0  0  0  0
  1  9  2  0  0  0
  2  9  1  0  0  0
  2 11  1  0  0  0
  2 20  1  0  0  0
  3  8  1  0  0  0
  3 11  2  0  0  0
  4 11  1  0  0  0
  4 23  1  0  0  0
  4 36  1  0  0  0
  5 24  2  0  0  0
  5 25  1  0  0  0
  6 28  1  0  0  0
  6 37  1  0  0  0
  6 38  1  0  0  0
  6 63  1  0  0  0
  7  8  2  0  0  0
  7  9  1  0  0  0
  7 10  1  0  0  0
  8 12  1  0  0  0
 10 13  2  0  0  0
 10 15  1  0  0  0
 12 18  2  0  0  0
 12 19  1  0  0  0
 13 14  1  0  0  0
 13 39  1  0  0  0
 14 16  2  0  0  0
 14 21  1  0  0  0
 15 17  2  0  0  0
 15 40  1  0  0  0
 16 17  1  0  0  0
 16 22  1  0  0  0
 17 41  1  0  0  0
 18 24  1  0  0  0
 18 42  1  0  0  0
 19 25  2  0  0  0
 19 43  1  0  0  0
 20 44  1  0  0  0
 20 45  1  0  0  0
 20 46  1  0  0  0
 21 26  2  0  0  0
 21 47  1  0  0  0
 22 27  2  0  0  0
 22 48  1  0  0  0
 23 28  1  0  0  0
 23 49  1  0  0  0
 23 50  1  0  0  0
 24 51  1  0  0  0
 25 52  1  0  0  0
 26 27  1  0  0  0
 26 53  1  0  0  0
 27 54  1  0  0  0
 28 29  1  0  0  0
 28 55  1  0  0  0
 29 30  1  0  0  0
 29 56  1  0  0  0
 29 57  1  0  0  0
 30 31  2  0  0  0
 30 32  1  0  0  0
 31 33  1  0  0  0
 31 58  1  0  0  0
 32 34  2  0  0  0
 32 59  1  0  0  0
 33 35  2  0  0  0
 33 60  1  0  0  0
 34 35  1  0  0  0
 34 61  1  0  0  0
 35 62  1  0  0  0
M  CHG  1   6   1
M  END
> <chembl_id>
CHEMBL1990496

> <chembl_pref_name>
None

> <s_m_source_file>
sdf/inactives_sanitized.sdf

> <i_m_source_file_index>
8

> <i_lp_mmshare_version>
49012

> <i_m_ct_stereo_status>
1

> <i_f3d_flags>
0

> <s_epik_input>
W2NIXTFbY0hdW2NIXVtjSF1jKGMxMilbY0hdW2NIXWMoW2NIXTIpLWMoYyg9TyluM1tDSDNdKWMoLWM0W2NIXVtjSF1uW2NIXVtjSF00KW5jM1tOSF1bQ0gyXVtDQEBIXShbTkgyXSlbQ0gyXWM1W2NIXVtjSF1bY0hdW2NIXVtjSF01

> <s_epik_cmdline>
J2VwaWtfcHl0aG9uJywgJy1waHQnLCAnMC41JywgJy1waCcsICc3LjUnLCAnLW50JywgJy1tYScsICcyMDAnLCAnLWltYWUnLCAnPGluZmlsZS5tYWU+JywgJy1vbWFlJywgJzxvdXRmaWxlLm1hZT4n

> <r_lp_tautomer_probability>
1

> <r_epik_Ionization_Penalty>
  0.0094

> <r_epik_Ionization_Penalty_Charging>
  0.0068

> <r_epik_Ionization_Penalty_Neutral>
  0.0026

> <r_epik_State_Penalty>
 -0.0000

> <r_epik_Charging_Adjusted_Penalty>
0.00680220162447694

> <i_epik_Tot_Q>
1

> <i_epik_Tot_abs_Q>
1

> <s_epik_Chemistry_Notes>
This compound has an imine and may undergo hydrolysis.

> <s_lp_Force_Field>
OPLS3e

> <r_lp_Energy>
76.691372

> <b_lp_Chiralities_Consistent>
1

> <s_lp_Variant>
sdf/inactives_sanitized.sdf:8-1

$$$$
sdf/inactives_sanitized.sdf:9
                    3D
 Schrodinger Suite 2020-1.
 42 45  0  0  1  0            999 V2000
   -0.9645    0.9043   -0.3563 O   0  0  0  0  0  0
   -4.7037   -1.6998   -2.0172 N   0  0  0  0  0  0
   -4.2951   -3.7951   -1.3898 N   0  0  0  0  0  0
   -7.0490   -0.3002   -2.6700 N   0  0  0  0  0  0
   -5.5588    1.6031   -2.9883 N   0  0  0  0  0  0
   -0.5831   -1.3088   -0.0021 N   0  0  0  0  0  0
    2.0197    2.8081   -0.3851 N   0  0  0  0  0  0
   -3.7390   -2.6256   -1.6601 C   0  0  0  0  0  0
   -4.6212   -0.3299   -2.3696 C   0  0  0  0  0  0
   -5.9278   -2.3753   -1.9873 C   0  0  0  0  0  0
   -2.2524   -2.3159   -1.4846 C   0  0  2  0  0  0
   -5.8500    0.2912   -2.6797 C   0  0  0  0  0  0
   -5.5900   -3.6889   -1.5944 C   0  0  0  0  0  0
   -7.0683   -1.6210   -2.3267 C   0  0  0  0  0  0
   -1.3062   -3.5415   -1.6907 C   0  0  2  0  0  0
   -3.5713    0.6342   -2.5069 C   0  0  0  0  0  0
   -2.0055   -1.6864   -0.0836 C   0  0  0  0  0  0
   -4.1998    1.8088   -2.8843 C   0  0  0  0  0  0
    0.1625   -3.1263   -1.4182 C   0  0  0  0  0  0
    0.3418   -2.4546   -0.0400 C   0  0  0  0  0  0
   -0.1747   -0.0312   -0.2144 C   0  0  0  0  0  0
   -1.4357   -4.1842   -3.0875 C   0  0  0  0  0  0
    1.3276    0.2835   -0.1328 C   0  0  0  0  0  0
    1.7144    1.6975   -0.2740 C   0  0  0  0  0  0
   -6.2040    2.3323   -3.2557 H   0  0  0  0  0  0
   -1.9672   -1.5929   -2.2483 H   0  0  0  0  0  0
   -6.2494   -4.5318   -1.4484 H   0  0  0  0  0  0
   -8.0452   -2.0817   -2.3231 H   0  0  0  0  0  0
   -1.5774   -4.2901   -0.9436 H   0  0  0  0  0  0
   -2.5099    0.5172   -2.3604 H   0  0  0  0  0  0
   -2.1520   -2.4345    0.6968 H   0  0  0  0  0  0
   -2.6716   -0.8640    0.1832 H   0  0  0  0  0  0
   -3.7915    2.7867   -3.0932 H   0  0  0  0  0  0
    0.8151   -3.9961   -1.4997 H   0  0  0  0  0  0
    0.5126   -2.4477   -2.1985 H   0  0  0  0  0  0
    1.3706   -2.2079    0.2214 H   0  0  0  0  0  0
    0.0281   -3.1388    0.7497 H   0  0  0  0  0  0
   -1.2001   -3.4696   -3.8771 H   0  0  0  0  0  0
   -2.4424   -4.5577   -3.2728 H   0  0  0  0  0  0
   -0.7577   -5.0315   -3.1947 H   0  0  0  0  0  0
    1.7200   -0.0555    0.8264 H   0  0  0  0  0  0
    1.8540   -0.2618   -0.9168 H   0  0  0  0  0  0
  1 21  2  0  0  0
  2  8  1  0  0  0
  2  9  1  0  0  0
  2 10  1  0  0  0
  3  8  2  0  0  0
  3 13  1  0  0  0
  4 12  1  0  0  0
  4 14  2  0  0  0
  5 12  1  0  0  0
  5 18  1  0  0  0
  5 25  1  0  0  0
  6 17  1  0  0  0
  6 20  1  0  0  0
  6 21  1  0  0  0
  7 24  3  0  0  0
  8 11  1  0  0  0
  9 12  2  0  0  0
  9 16  1  0  0  0
 10 13  2  0  0  0
 10 14  1  0  0  0
 11 15  1  0  0  0
 11 17  1  0  0  0
 11 26  1  0  0  0
 13 27  1  0  0  0
 14 28  1  0  0  0
 15 19  1  0  0  0
 15 22  1  0  0  0
 15 29  1  0  0  0
 16 18  2  0  0  0
 16 30  1  0  0  0
 17 31  1  0  0  0
 17 32  1  0  0  0
 18 33  1  0  0  0
 19 20  1  0  0  0
 19 34  1  0  0  0
 19 35  1  0  0  0
 20 36  1  0  0  0
 20 37  1  0  0  0
 21 23  1  0  0  0
 22 38  1  0  0  0
 22 39  1  0  0  0
 22 40  1  0  0  0
 23 24  1  0  0  0
 23 41  1  0  0  0
 23 42  1  0  0  0
M  END
> <chembl_id>
CHEMBL1966175

> <chembl_pref_name>
None

> <s_m_source_file>
sdf/inactives_sanitized.sdf

> <i_m_source_file_index>
9

> <i_lp_mmshare_version>
49012

> <i_m_ct_stereo_status>
1

> <i_f3d_flags>
0

> <s_epik_input>
TiNDW0NIMl1DKD1PKU4xW0NIMl1bQ0BASF0oW0NAQEhdKFtDSDNdKVtDSDJdW0NIMl0xKWMybltjSF1jM1tjSF1uYyhjNG4yMylbbkhdW2NIXVtjSF00

> <s_epik_cmdline>
J2VwaWtfcHl0aG9uJywgJy1waHQnLCAnMC41JywgJy1waCcsICc3LjUnLCAnLW50JywgJy1tYScsICcyMDAnLCAnLWltYWUnLCAnPGluZmlsZS5tYWU+JywgJy1vbWFlJywgJzxvdXRmaWxlLm1hZT4n

> <r_lp_tautomer_probability>
1

> <r_epik_Ionization_Penalty>
  0.0059

> <r_epik_Ionization_Penalty_Charging>
  0.0000

> <r_epik_Ionization_Penalty_Neutral>
  0.0059

> <r_epik_State_Penalty>
 -0.0000

> <r_epik_Charging_Adjusted_Penalty>
0

> <i_epik_Tot_Q>
0

> <i_epik_Tot_abs_Q>
0

> <s_lp_Force_Field>
OPLS3e

> <r_lp_Energy>
21.642076

> <b_lp_Chiralities_Consistent>
1

> <s_lp_Variant>
sdf/inactives_sanitized.sdf:9-1

$$$$
sdf/inactives_sanitized.sdf:10
                    3D
 Schrodinger Suite 2020-1.
 27 29  0  0  1  0            999 V2000
    5.6423    0.0034    0.0405 F   0  0  0  0  0  0
   -0.6218   -1.2012   -0.0026 N   0  0  0  0  0  0
   -2.8046   -0.1052   -0.0006 N   0  0  0  0  0  0
   -2.6864    2.3254   -0.0005 N   0  0  0  0  0  0
   -0.7272    1.2056   -0.0021 C   0  0  0  0  0  0
    0.0074    0.0050   -0.0028 C   0  0  0  0  0  0
   -2.1434    1.0585   -0.0011 C   0  0  0  0  0  0
    1.4853   -0.0193    0.0017 C   0  0  0  0  0  0
   -0.4490    2.6123   -0.0007 C   0  0  0  0  0  0
    2.1995   -0.0118   -1.2011 C   0  0  0  0  0  0
    2.1889   -0.0104    1.2098 C   0  0  0  0  0  0
    3.5979   -0.0063   -1.2039 C   0  0  0  0  0  0
   -1.9803   -1.1875   -0.0012 C   0  0  0  0  0  0
   -1.6735    3.2562   -0.0003 C   0  0  0  0  0  0
    4.2893   -0.0039    0.0136 C   0  0  0  0  0  0
    3.5831   -0.0051    1.2160 C   0  0  0  0  0  0
    4.3393   -0.0004   -2.5304 C   0  0  0  0  0  0
   -3.6637    2.5792    0.0000 H   0  0  0  0  0  0
    0.5160    3.0980   -0.0002 H   0  0  0  0  0  0
    1.6634   -0.0089   -2.1398 H   0  0  0  0  0  0
    1.6536   -0.0063    2.1484 H   0  0  0  0  0  0
   -2.4648   -2.1529    0.0001 H   0  0  0  0  0  0
   -1.9152    4.3091    0.0003 H   0  0  0  0  0  0
    4.1166    0.0006    2.1548 H   0  0  0  0  0  0
    5.4229    0.0006   -2.4084 H   0  0  0  0  0  0
    4.0600    0.8794   -3.1110 H   0  0  0  0  0  0
    4.0631   -0.8771   -3.1169 H   0  0  0  0  0  0
  1 15  1  0  0  0
  2  6  2  0  0  0
  2 13  1  0  0  0
  3  7  1  0  0  0
  3 13  2  0  0  0
  4  7  1  0  0  0
  4 14  1  0  0  0
  4 18  1  0  0  0
  5  6  1  0  0  0
  5  7  2  0  0  0
  5  9  1  0  0  0
  6  8  1  0  0  0
  8 10  2  0  0  0
  8 11  1  0  0  0
  9 14  2  0  0  0
  9 19  1  0  0  0
 10 12  1  0  0  0
 10 20  1  0  0  0
 11 16  2  0  0  0
 11 21  1  0  0  0
 12 15  2  0  0  0
 12 17  1  0  0  0
 13 22  1  0  0  0
 14 23  1  0  0  0
 15 16  1  0  0  0
 16 24  1  0  0  0
 17 25  1  0  0  0
 17 26  1  0  0  0
 17 27  1  0  0  0
M  END
> <chembl_id>
CHEMBL1997041

> <chembl_pref_name>
None

> <s_m_source_file>
sdf/inactives_sanitized.sdf

> <i_m_source_file_index>
10

> <i_lp_mmshare_version>
49012

> <i_m_ct_stereo_status>
1

> <i_f3d_flags>
0

> <s_epik_input>
W2NIXTFbY0hdYyhGKWMoW0NIM10pW2NIXWMxLWMybltjSF1uYyhjMjMpW25IXVtjSF1bY0hdMw==

> <s_epik_cmdline>
J2VwaWtfcHl0aG9uJywgJy1waHQnLCAnMC41JywgJy1waCcsICc3LjUnLCAnLW50JywgJy1tYScsICcyMDAnLCAnLWltYWUnLCAnPGluZmlsZS5tYWU+JywgJy1vbWFlJywgJzxvdXRmaWxlLm1hZT4n

> <r_lp_tautomer_probability>
1

> <r_epik_Ionization_Penalty>
  0.0000

> <r_epik_Ionization_Penalty_Charging>
  0.0000

> <r_epik_Ionization_Penalty_Neutral>
  0.0000

> <r_epik_State_Penalty>
 -0.0000

> <r_epik_Charging_Adjusted_Penalty>
0

> <i_epik_Tot_Q>
0

> <i_epik_Tot_abs_Q>
0

> <s_lp_Force_Field>
OPLS3e

> <r_lp_Energy>
28.278755

> <b_lp_Chiralities_Consistent>
1

> <s_lp_Variant>
sdf/inactives_sanitized.sdf:10-1

$$$$
sdf/inactives_sanitized.sdf:11
                    3D
 Schrodinger Suite 2020-1.
 35 38  0  0  1  0            999 V2000
   -2.2929   -8.1716   -0.0000 C   0  0  0  0  0  0
   -1.5387   -7.0370   -0.0000 N   0  0  0  0  0  0
   -2.2184   -5.8821   -0.0000 C   0  0  0  0  0  0
   -3.6381   -5.8799   -0.0000 C   0  0  0  0  0  0
   -4.4037   -6.9781   -0.0000 N   0  0  0  0  0  0
   -3.6915   -8.1392   -0.0000 C   0  0  0  0  0  0
   -1.7922   -4.5173   -0.0000 C   0  0  0  0  0  0
   -2.9361   -3.7220   -0.0000 C   0  0  0  0  0  0
   -4.0349   -4.5618   -0.0000 N   0  0  0  0  0  0
   -3.1050   -2.2662   -0.0000 C   0  0  0  0  0  0
   -2.1014   -1.2280   -0.0000 C   0  0  0  0  0  0
   -2.7862    0.0285   -0.0000 C   0  0  0  0  0  0
   -4.1422   -0.2423   -0.0000 N   0  0  0  0  0  0
   -4.3204   -1.6034   -0.0000 C   0  0  0  0  0  0
   -0.6947   -1.2171   -0.0000 C   0  0  0  0  0  0
   -0.0007    0.0027   -0.0000 C   0  0  0  0  0  0
   -0.7107    1.2006    0.0000 C   0  0  0  0  0  0
   -2.1024    1.2495    0.0000 C   0  0  0  0  0  0
   -5.2111    0.7440   -0.0000 C   0  0  0  0  0  0
    1.3769    0.1115    0.0000 O   0  0  0  0  0  0
    2.1709   -1.0701    0.0000 C   0  0  0  0  0  0
   -1.7590   -9.1106   -0.0000 H   0  0  0  0  0  0
   -4.2626   -9.0559   -0.0000 H   0  0  0  0  0  0
   -0.7733   -4.1663   -0.0000 H   0  0  0  0  0  0
   -4.9810   -4.2097   -0.0000 H   0  0  0  0  0  0
   -5.3245   -2.0029   -0.0000 H   0  0  0  0  0  0
   -0.1538   -2.1471   -0.0000 H   0  0  0  0  0  0
   -0.1626    2.1318    0.0000 H   0  0  0  0  0  0
   -2.6223    2.1962    0.0000 H   0  0  0  0  0  0
   -6.1851    0.2526   -0.0000 H   0  0  0  0  0  0
   -5.1240    1.3698   -0.8889 H   0  0  0  0  0  0
   -5.1240    1.3698    0.8889 H   0  0  0  0  0  0
    3.2253   -0.7944    0.0000 H   0  0  0  0  0  0
    1.9880   -1.6752   -0.8892 H   0  0  0  0  0  0
    1.9880   -1.6752    0.8891 H   0  0  0  0  0  0
  1  2  2  0  0  0
  1  6  1  0  0  0
  1 22  1  0  0  0
  2  3  1  0  0  0
  3  4  2  0  0  0
  3  7  1  0  0  0
  4  5  1  0  0  0
  4  9  1  0  0  0
  5  6  2  0  0  0
  6 23  1  0  0  0
  7  8  2  0  0  0
  7 24  1  0  0  0
  8  9  1  0  0  0
  8 10  1  0  0  0
  9 25  1  0  0  0
 10 11  1  0  0  0
 10 14  2  0  0  0
 11 12  2  0  0  0
 11 15  1  0  0  0
 12 13  1  0  0  0
 12 18  1  0  0  0
 13 14  1  0  0  0
 13 19  1  0  0  0
 14 26  1  0  0  0
 15 16  2  0  0  0
 15 27  1  0  0  0
 16 17  1  0  0  0
 16 20  1  0  0  0
 17 18  2  0  0  0
 17 28  1  0  0  0
 18 29  1  0  0  0
 19 30  1  0  0  0
 19 31  1  0  0  0
 19 32  1  0  0  0
 20 21  1  0  0  0
 21 33  1  0  0  0
 21 34  1  0  0  0
 21 35  1  0  0  0
M  END
> <chembl_id>
CHEMBL1233887

> <chembl_pref_name>
None

> <s_m_source_file>
sdf/inactives_sanitized.sdf

> <i_m_source_file_index>
11

> <i_lp_mmshare_version>
49012

> <i_m_ct_stereo_status>
1

> <i_f3d_flags>
0

> <s_epik_input>
bjFbY0hdW2NIXW5jKGMxMilbbkhdYyhbY0hdMiktYzNbY0hdbihbQ0gzXSljKGMzNClbY0hdW2NIXWMoW2NIXTQpT1tDSDNd

> <s_epik_cmdline>
J2VwaWtfcHl0aG9uJywgJy1waHQnLCAnMC41JywgJy1waCcsICc3LjUnLCAnLW50JywgJy1tYScsICcyMDAnLCAnLWltYWUnLCAnPGluZmlsZS5tYWU+JywgJy1vbWFlJywgJzxvdXRmaWxlLm1hZT4n

> <r_lp_tautomer_probability>
1

> <r_epik_Ionization_Penalty>
  0.0000

> <r_epik_Ionization_Penalty_Charging>
  0.0000

> <r_epik_Ionization_Penalty_Neutral>
  0.0000

> <r_epik_State_Penalty>
 -0.0000

> <r_epik_Charging_Adjusted_Penalty>
0

> <i_epik_Tot_Q>
0

> <i_epik_Tot_abs_Q>
0

> <s_lp_Force_Field>
OPLS3e

> <r_lp_Energy>
29.670983

> <b_lp_Chiralities_Consistent>
1

> <s_lp_Variant>
sdf/inactives_sanitized.sdf:11-1

$$$$
sdf/inactives_sanitized.sdf:12
                    3D
 Schrodinger Suite 2020-1.
 32 33  0  0  1  0            999 V2000
    0.0843    0.5100    5.3889 I   0  0  0  0  0  0
    4.5509    3.0392   -0.6946 I   0  0  0  0  0  0
   -3.0923   -3.7200    2.6150 Br  0  0  0  0  0  0
    4.6861   -2.6886    0.8466 Br  0  0  0  0  0  0
   -1.8957   -2.0008    4.8920 O   0  5  0  0  0  0
    5.7363    0.1467    0.1513 O   0  0  0  0  0  0
    0.0086   -0.1875   -0.1033 C   0  0  0  0  0  0
   -0.5345   -0.7078    1.2526 C   0  0  0  0  0  0
    1.5539   -0.0624   -0.0481 C   0  0  0  0  0  0
   -0.1366   -0.0763    2.4398 C   0  0  0  0  0  0
    2.2301    1.1359   -0.3290 C   0  0  0  0  0  0
   -1.4215   -1.7908    1.3478 C   0  0  0  0  0  0
    2.3194   -1.1863    0.2970 C   0  0  0  0  0  0
   -0.5932   -0.5106    3.6835 C   0  0  0  0  0  0
    3.6219    1.2102   -0.2638 C   0  0  0  0  0  0
   -1.8893   -2.2358    2.5844 C   0  0  0  0  0  0
    3.7105   -1.1221    0.3650 C   0  0  0  0  0  0
   -1.4750   -1.5974    3.7621 C   0  0  0  0  0  0
    4.3676    0.0795    0.0844 C   0  0  0  0  0  0
   -0.3346   -1.1225   -1.2979 C   0  0  0  0  0  0
   -0.7040    1.1636   -0.3904 C   0  0  0  0  0  0
    6.1243   -0.6112    0.5946 H   0  0  0  0  0  0
    0.5406    0.7648    2.3999 H   0  0  0  0  0  0
    1.6920    2.0306   -0.6003 H   0  0  0  0  0  0
   -1.7651   -2.3091    0.4664 H   0  0  0  0  0  0
    1.8282   -2.1223    0.5217 H   0  0  0  0  0  0
    0.0429   -2.1351   -1.1496 H   0  0  0  0  0  0
    0.0999   -0.7534   -2.2283 H   0  0  0  0  0  0
   -1.4102   -1.1970   -1.4645 H   0  0  0  0  0  0
   -0.4740    1.9166    0.3649 H   0  0  0  0  0  0
   -1.7890    1.0464   -0.4000 H   0  0  0  0  0  0
   -0.4245    1.5757   -1.3612 H   0  0  0  0  0  0
  1 14  1  0  0  0
  2 15  1  0  0  0
  3 16  1  0  0  0
  4 17  1  0  0  0
  5 18  1  0  0  0
  6 19  1  0  0  0
  6 22  1  0  0  0
  7  8  1  0  0  0
  7  9  1  0  0  0
  7 20  1  0  0  0
  7 21  1  0  0  0
  8 10  2  0  0  0
  8 12  1  0  0  0
  9 11  2  0  0  0
  9 13  1  0  0  0
 10 14  1  0  0  0
 10 23  1  0  0  0
 11 15  1  0  0  0
 11 24  1  0  0  0
 12 16  2  0  0  0
 12 25  1  0  0  0
 13 17  2  0  0  0
 13 26  1  0  0  0
 14 18  2  0  0  0
 15 19  2  0  0  0
 16 18  1  0  0  0
 17 19  1  0  0  0
 20 27  1  0  0  0
 20 28  1  0  0  0
 20 29  1  0  0  0
 21 30  1  0  0  0
 21 31  1  0  0  0
 21 32  1  0  0  0
M  CHG  1   5  -1
M  END
> <chembl_id>
CHEMBL1964382

> <chembl_pref_name>
None

> <s_m_source_file>
sdf/inactives_sanitized.sdf

> <i_m_source_file_index>
12

> <i_lp_mmshare_version>
49012

> <i_m_ct_stereo_status>
1

> <i_f3d_flags>
0

> <s_epik_input>
QnJjKFtjSF0xKWMoW09IXSljKEkpW2NIXWMxQyhbQ0gzXSkoW0NIM10pYzJbY0hdYyhJKWMoW09IXSljKEJyKVtjSF0y

> <s_epik_cmdline>
J2VwaWtfcHl0aG9uJywgJy1waHQnLCAnMC41JywgJy1waCcsICc3LjUnLCAnLW50JywgJy1tYScsICcyMDAnLCAnLWltYWUnLCAnPGluZmlsZS5tYWU+JywgJy1vbWFlJywgJzxvdXRmaWxlLm1hZT4n

> <r_lp_tautomer_probability>
0.999999999997365

> <r_epik_Ionization_Penalty>
  0.4118

> <r_epik_Ionization_Penalty_Charging>
  0.0029

> <r_epik_Ionization_Penalty_Neutral>
  0.4089

> <r_epik_State_Penalty>
  0.4088

> <r_epik_Charging_Adjusted_Penalty>
0.411652856085873

> <i_epik_Tot_Q>
-1

> <i_epik_Tot_abs_Q>
1

> <s_lp_Force_Field>
OPLS3e

> <r_lp_Energy>
30.943699

> <b_lp_Chiralities_Consistent>
1

> <s_lp_Variant>
sdf/inactives_sanitized.sdf:12-1

$$$$
sdf/inactives_sanitized.sdf:12
                    3D
 Schrodinger Suite 2020-1.
 31 32  0  0  1  0            999 V2000
    4.1238    2.0087   -2.8710 I   0  0  0  0  0  0
   -3.6582    0.0777   -4.1136 I   0  0  0  0  0  0
    4.9281   -0.9438    2.2601 Br  0  0  0  0  0  0
    0.5307   -4.1385   -3.5063 Br  0  0  0  0  0  0
    5.5701    0.6430   -0.3178 O   0  5  0  0  0  0
   -1.8337   -2.5309   -4.6923 O   0  5  0  0  0  0
    0.0014   -0.1857    0.1038 C   0  0  0  0  0  0
    1.5357    0.0268    0.0191 C   0  0  0  0  0  0
   -0.5288   -0.8061   -1.2152 C   0  0  0  0  0  0
    2.0716    0.7300   -1.0694 C   0  0  0  0  0  0
   -1.6004   -0.2560   -1.9351 C   0  0  0  0  0  0
    2.4228   -0.4536    0.9945 C   0  0  0  0  0  0
    0.0755   -1.9673   -1.7179 C   0  0  0  0  0  0
    3.4438    0.9447   -1.1929 C   0  0  0  0  0  0
   -2.0499   -0.8380   -3.1208 C   0  0  0  0  0  0
    3.7982   -0.2478    0.8850 C   0  0  0  0  0  0
   -0.3613   -2.5607   -2.9014 C   0  0  0  0  0  0
    4.3173    0.4532   -0.2129 C   0  0  0  0  0  0
   -1.4295   -1.9959   -3.6120 C   0  0  0  0  0  0
   -0.4208   -1.1398    1.2565 C   0  0  0  0  0  0
   -0.6325    1.1967    0.4269 C   0  0  0  0  0  0
    1.4137    1.1151   -1.8353 H   0  0  0  0  0  0
   -2.1040    0.6340   -1.5915 H   0  0  0  0  0  0
    2.0643   -0.9977    1.8543 H   0  0  0  0  0  0
    0.9003   -2.4172   -1.1843 H   0  0  0  0  0  0
    0.0429   -2.1230    1.1638 H   0  0  0  0  0  0
   -1.5005   -1.2972    1.2665 H   0  0  0  0  0  0
   -0.1544   -0.7422    2.2368 H   0  0  0  0  0  0
   -0.4646    1.9208   -0.3716 H   0  0  0  0  0  0
   -0.2099    1.6240    1.3377 H   0  0  0  0  0  0
   -1.7097    1.1269    0.5850 H   0  0  0  0  0  0
  1 14  1  0  0  0
  2 15  1  0  0  0
  3 16  1  0  0  0
  4 17  1  0  0  0
  5 18  1  0  0  0
  6 19  1  0  0  0
  7  8  1  0  0  0
  7  9  1  0  0  0
  7 20  1  0  0  0
  7 21  1  0  0  0
  8 10  2  0  0  0
  8 12  1  0  0  0
  9 11  2  0  0  0
  9 13  1  0  0  0
 10 14  1  0  0  0
 10 22  1  0  0  0
 11 15  1  0  0  0
 11 23  1  0  0  0
 12 16  2  0  0  0
 12 24  1  0  0  0
 13 17  2  0  0  0
 13 25  1  0  0  0
 14 18  2  0  0  0
 15 19  2  0  0  0
 16 18  1  0  0  0
 17 19  1  0  0  0
 20 26  1  0  0  0
 20 27  1  0  0  0
 20 28  1  0  0  0
 21 29  1  0  0  0
 21 30  1  0  0  0
 21 31  1  0  0  0
M  CHG  2   5  -1   6  -1
M  END
> <chembl_id>
CHEMBL1964382

> <chembl_pref_name>
None

> <s_m_source_file>
sdf/inactives_sanitized.sdf

> <i_m_source_file_index>
12

> <i_lp_mmshare_version>
49012

> <i_m_ct_stereo_status>
1

> <i_f3d_flags>
0

> <s_epik_input>
QnJjKFtjSF0xKWMoW09IXSljKEkpW2NIXWMxQyhbQ0gzXSkoW0NIM10pYzJbY0hdYyhJKWMoW09IXSljKEJyKVtjSF0y

> <s_epik_cmdline>
J2VwaWtfcHl0aG9uJywgJy1waHQnLCAnMC41JywgJy1waCcsICc3LjUnLCAnLW50JywgJy1tYScsICcyMDAnLCAnLWltYWUnLCAnPGluZmlsZS5tYWU+JywgJy1vbWFlJywgJzxvdXRmaWxlLm1hZT4n

> <r_epik_Ionization_Penalty>
  0.4125

> <r_epik_Ionization_Penalty_Charging>
  0.4125

> <r_epik_Ionization_Penalty_Neutral>
  0.0000

> <r_epik_State_Penalty>
  0.4126

> <r_epik_Charging_Adjusted_Penalty>
0.825038436165733

> <i_epik_Tot_Q>
-2

> <i_epik_Tot_abs_Q>
2

> <s_lp_Force_Field>
OPLS3e

> <r_lp_Energy>
37.70074

> <b_lp_Chiralities_Consistent>
1

> <s_lp_Variant>
sdf/inactives_sanitized.sdf:12-2

$$$$
sdf/inactives_sanitized.sdf:13
                    3D
 Schrodinger Suite 2020-1.
 59 62  0  0  1  0            999 V2000
   -1.8052    3.6805    1.4865 O   0  0  0  0  0  0
    1.5902    4.6536    1.1646 O   0  0  0  0  0  0
    5.6858   -0.4124   -0.4530 O   0  0  0  0  0  0
    8.3087   -0.5021   -0.3939 O   0  0  0  0  0  0
    8.4677   -1.6915   -2.2588 O   0  5  0  0  0  0
    0.1410    0.1429    0.0785 N   0  0  0  0  0  0
   -0.6651   -0.9111   -0.1453 N   0  0  0  0  0  0
    0.0156    2.4851    0.7069 N   0  0  0  0  0  0
   -0.5803    1.2587    0.4554 C   0  0  0  0  0  0
   -1.9015   -0.5151    0.0866 C   0  0  0  0  0  0
   -1.9026    0.8341    0.4705 C   0  0  0  0  0  0
    1.5411   -0.0086   -0.0784 C   0  0  0  0  0  0
   -3.0773   -1.4894   -0.0813 C   0  0  0  0  0  0
   -0.2135    6.0867    1.8468 C   0  0  0  0  0  0
   -0.6137    3.5797    1.1851 C   0  0  0  0  0  0
    0.3778    4.8116    1.3364 C   0  0  0  0  0  0
   -1.1699    6.8763    1.1166 C   0  0  0  0  0  0
   -1.6507    8.0923    1.7036 C   0  0  0  0  0  0
    2.4175    0.5360    0.8661 C   0  0  0  0  0  0
    2.0527   -0.7125   -1.1748 C   0  0  0  0  0  0
    0.2540    6.5502    3.0809 C   0  0  0  0  0  0
   -1.6665    6.5220   -0.1744 C   0  0  0  0  0  0
    4.3096   -0.3129   -0.3835 C   0  0  0  0  0  0
    3.7917    0.3831    0.7087 C   0  0  0  0  0  0
    3.4281   -0.8619   -1.3277 C   0  0  0  0  0  0
   -1.1637    8.4972    2.9684 C   0  0  0  0  0  0
   -4.4259   -0.7791    0.1878 C   0  0  0  0  0  0
   -2.9312   -2.6632    0.9158 C   0  0  0  0  0  0
   -3.0991   -2.0479   -1.5246 C   0  0  0  0  0  0
   -0.2178    7.7316    3.6364 C   0  0  0  0  0  0
   -2.6031    8.8797    1.0088 C   0  0  0  0  0  0
   -2.6001    7.3192   -0.8292 C   0  0  0  0  0  0
   -3.0672    8.4869   -0.2412 C   0  0  0  0  0  0
    6.2821   -1.1284   -1.5374 C   0  0  0  0  0  0
    7.8097   -1.0992   -1.3751 C   0  0  0  0  0  0
    1.0086    2.5480    0.5324 H   0  0  0  0  0  0
   -2.7704    1.4277    0.7159 H   0  0  0  0  0  0
    2.0452    1.0672    1.7299 H   0  0  0  0  0  0
    1.3910   -1.1405   -1.9141 H   0  0  0  0  0  0
    0.9906    5.9849    3.6352 H   0  0  0  0  0  0
   -1.3219    5.6229   -0.6621 H   0  0  0  0  0  0
    4.4621    0.8050    1.4434 H   0  0  0  0  0  0
    3.7920   -1.4072   -2.1851 H   0  0  0  0  0  0
   -1.5240    9.4150    3.4108 H   0  0  0  0  0  0
   -5.2712   -1.4585    0.0691 H   0  0  0  0  0  0
   -4.5819    0.0566   -0.4961 H   0  0  0  0  0  0
   -4.4726   -0.3771    1.2010 H   0  0  0  0  0  0
   -2.9054   -2.3080    1.9469 H   0  0  0  0  0  0
   -2.0095   -3.2228    0.7492 H   0  0  0  0  0  0
   -3.7589   -3.3689    0.8332 H   0  0  0  0  0  0
   -3.9362   -2.7297   -1.6815 H   0  0  0  0  0  0
   -2.1863   -2.5969   -1.7603 H   0  0  0  0  0  0
   -3.1871   -1.2466   -2.2595 H   0  0  0  0  0  0
    0.1547    8.0580    4.5962 H   0  0  0  0  0  0
   -2.9667    9.7943    1.4552 H   0  0  0  0  0  0
   -2.9643    7.0279   -1.8033 H   0  0  0  0  0  0
   -3.7924    9.0959   -0.7606 H   0  0  0  0  0  0
    5.9409   -2.1653   -1.5331 H   0  0  0  0  0  0
    6.0139   -0.6605   -2.4865 H   0  0  0  0  0  0
  1 15  2  0  0  0
  2 16  2  0  0  0
  3 23  1  0  0  0
  3 34  1  0  0  0
  4 35  2  0  0  0
  5 35  1  0  0  0
  6  7  1  0  0  0
  6  9  1  0  0  0
  6 12  1  0  0  0
  7 10  2  0  0  0
  8  9  1  0  0  0
  8 15  1  0  0  0
  8 36  1  0  0  0
  9 11  2  0  0  0
 10 11  1  0  0  0
 10 13  1  0  0  0
 11 37  1  0  0  0
 12 19  2  0  0  0
 12 20  1  0  0  0
 13 27  1  0  0  0
 13 28  1  0  0  0
 13 29  1  0  0  0
 14 16  1  0  0  0
 14 17  1  0  0  0
 14 21  2  0  0  0
 15 16  1  0  0  0
 17 18  2  0  0  0
 17 22  1  0  0  0
 18 26  1  0  0  0
 18 31  1  0  0  0
 19 24  1  0  0  0
 19 38  1  0  0  0
 20 25  2  0  0  0
 20 39  1  0  0  0
 21 30  1  0  0  0
 21 40  1  0  0  0
 22 32  2  0  0  0
 22 41  1  0  0  0
 23 24  2  0  0  0
 23 25  1  0  0  0
 24 42  1  0  0  0
 25 43  1  0  0  0
 26 30  2  0  0  0
 26 44  1  0  0  0
 27 45  1  0  0  0
 27 46  1  0  0  0
 27 47  1  0  0  0
 28 48  1  0  0  0
 28 49  1  0  0  0
 28 50  1  0  0  0
 29 51  1  0  0  0
 29 52  1  0  0  0
 29 53  1  0  0  0
 30 54  1  0  0  0
 31 33  2  0  0  0
 31 55  1  0  0  0
 32 33  1  0  0  0
 32 56  1  0  0  0
 33 57  1  0  0  0
 34 35  1  0  0  0
 34 58  1  0  0  0
 34 59  1  0  0  0
M  CHG  1   5  -1
M  END
> <chembl_id>
CHEMBL2005699

> <chembl_pref_name>
None

> <s_m_source_file>
sdf/inactives_sanitized.sdf

> <i_m_source_file_index>
13

> <i_lp_mmshare_version>
49012

> <i_m_ct_stereo_status>
1

> <i_f3d_flags>
0

> <s_epik_input>
W2NIXTFbY0hdW2NIXVtjSF1jKGMxMilbY0hdW2NIXVtjSF1jMkMoPU8pQyg9TylbTkhdYzNbY0hdYyhDKFtDSDNdKShbQ0gzXSlbQ0gzXSlubjMtYzRbY0hdW2NIXWMoW2NIXVtjSF00KU9bQ0gyXUMoPU8pW09IXQ==

> <s_epik_cmdline>
J2VwaWtfcHl0aG9uJywgJy1waHQnLCAnMC41JywgJy1waCcsICc3LjUnLCAnLW50JywgJy1tYScsICcyMDAnLCAnLWltYWUnLCAnPGluZmlsZS5tYWU+JywgJy1vbWFlJywgJzxvdXRmaWxlLm1hZT4n

> <r_lp_tautomer_probability>
1

> <r_epik_Ionization_Penalty>
  0.0000

> <r_epik_Ionization_Penalty_Charging>
  0.0000

> <r_epik_Ionization_Penalty_Neutral>
  0.0000

> <r_epik_State_Penalty>
 -0.0000

> <r_epik_Charging_Adjusted_Penalty>
2.18675892367016e-05

> <i_epik_Tot_Q>
-1

> <i_epik_Tot_abs_Q>
1

> <s_lp_Force_Field>
OPLS3e

> <r_lp_Energy>
59.921478

> <b_lp_Chiralities_Consistent>
1

> <s_lp_Variant>
sdf/inactives_sanitized.sdf:13-1

$$$$
sdf/inactives_sanitized.sdf:14
                    3D
 Schrodinger Suite 2020-1.
 78 81  0  0  1  0            999 V2000
   -5.1371   -3.2348    5.1706 O   0  0  0  0  0  0
   -0.4842   -1.5630    1.3702 O   0  0  0  0  0  0
   -5.2050    0.1598    2.6420 N   0  0  0  0  0  0
   -6.1000    1.1084    2.9780 N   0  0  0  0  0  0
   -4.5947   -2.1134    3.2537 N   0  0  0  0  0  0
   -3.4170   -3.8874    3.7929 N   0  0  0  0  0  0
    0.5385    0.3006    0.5733 N   0  0  0  0  0  0
    3.1408   -2.8451   -2.4247 N   0  3  0  0  0  0
   -5.3755   -0.9781    3.4095 C   0  0  0  0  0  0
   -6.8550    0.6191    3.9422 C   0  0  0  0  0  0
   -4.2169    0.4559    1.6633 C   0  0  0  0  0  0
   -6.4409   -0.6840    4.2491 C   0  0  0  0  0  0
   -7.9946    1.4306    4.5795 C   0  0  0  0  0  0
   -2.9149   -0.0519    1.7814 C   0  0  0  0  0  0
   -1.9395    0.2120    0.8107 C   0  0  0  0  0  0
   -4.5361    1.2494    0.5524 C   0  0  0  0  0  0
   -4.4477   -3.0982    4.1586 C   0  0  0  0  0  0
   -2.8008   -4.9647    4.4693 C   0  0  0  0  0  0
   -1.8278   -5.7400    3.7517 C   0  0  0  0  0  0
   -0.5639   -0.4053    0.9499 C   0  0  0  0  0  0
   -2.2924    0.9877   -0.3036 C   0  0  0  0  0  0
   -1.1659   -6.8203    4.4207 C   0  0  0  0  0  0
   -3.5784    1.5108   -0.4253 C   0  0  0  0  0  0
   -9.2973    0.5980    4.5441 C   0  0  0  0  0  0
   -8.2565    2.7706    3.8424 C   0  0  0  0  0  0
   -7.6294    1.7387    6.0489 C   0  0  0  0  0  0
   -3.0535   -5.2707    5.8161 C   0  0  0  0  0  0
   -1.4817   -5.4902    2.3888 C   0  0  0  0  0  0
   -1.4748   -7.0951    5.7726 C   0  0  0  0  0  0
   -0.2081   -7.5977    3.7218 C   0  0  0  0  0  0
   -2.4052   -6.3210    6.4519 C   0  0  0  0  0  0
   -0.5353   -6.2722    1.7337 C   0  0  0  0  0  0
    0.0959   -7.3179    2.3940 C   0  0  0  0  0  0
    1.8207   -0.3703    0.3118 C   0  0  0  0  0  0
    0.5932    1.7598    0.4361 C   0  0  0  0  0  0
    1.8385   -1.1909   -0.9919 C   0  0  0  0  0  0
    3.1932   -1.8841   -1.2146 C   0  0  0  0  0  0
    2.9313   -2.1271   -3.7742 C   0  0  0  0  0  0
    4.3933   -3.7422   -2.4764 C   0  0  0  0  0  0
   -3.9667   -2.1101    2.4632 H   0  0  0  0  0  0
   -2.9729   -3.6522    2.9176 H   0  0  0  0  0  0
   -6.8777   -1.3317    4.9947 H   0  0  0  0  0  0
   -2.6417   -0.6407    2.6450 H   0  0  0  0  0  0
   -5.5310    1.6534    0.4305 H   0  0  0  0  0  0
   -1.5790    1.1828   -1.0912 H   0  0  0  0  0  0
   -3.8372    2.1099   -1.2857 H   0  0  0  0  0  0
  -10.1348    1.1383    4.9877 H   0  0  0  0  0  0
   -9.1931   -0.3411    5.0896 H   0  0  0  0  0  0
   -9.5778    0.3422    3.5211 H   0  0  0  0  0  0
   -8.5217    2.6067    2.7968 H   0  0  0  0  0  0
   -7.3760    3.4152    3.8525 H   0  0  0  0  0  0
   -9.0727    3.3307    4.3010 H   0  0  0  0  0  0
   -8.4216    2.2919    6.5556 H   0  0  0  0  0  0
   -6.7182    2.3352    6.1153 H   0  0  0  0  0  0
   -7.4539    0.8255    6.6198 H   0  0  0  0  0  0
   -3.7474   -4.6992    6.4102 H   0  0  0  0  0  0
   -1.9560   -4.6855    1.8465 H   0  0  0  0  0  0
   -0.9762   -7.9083    6.2803 H   0  0  0  0  0  0
    0.2895   -8.4128    4.2279 H   0  0  0  0  0  0
   -2.6233   -6.5333    7.4882 H   0  0  0  0  0  0
   -0.2910   -6.0653    0.7021 H   0  0  0  0  0  0
    0.8277   -7.9175    1.8728 H   0  0  0  0  0  0
    2.6299    0.3610    0.2752 H   0  0  0  0  0  0
    2.0710   -1.0165    1.1551 H   0  0  0  0  0  0
   -0.3123    2.2598    0.7791 H   0  0  0  0  0  0
    0.7675    2.0368   -0.6041 H   0  0  0  0  0  0
    1.4145    2.1594    1.0319 H   0  0  0  0  0  0
    1.0517   -1.9461   -0.9721 H   0  0  0  0  0  0
    1.6228   -0.5215   -1.8245 H   0  0  0  0  0  0
    3.4429   -2.5150   -0.3599 H   0  0  0  0  0  0
    4.0104   -1.1852   -1.4012 H   0  0  0  0  0  0
    3.7497   -1.4173   -3.9058 H   0  0  0  0  0  0
    1.9634   -1.6280   -3.7432 H   0  0  0  0  0  0
    2.9355   -2.8908   -4.5530 H   0  0  0  0  0  0
    5.2610   -3.0967   -2.6226 H   0  0  0  0  0  0
    4.2629   -4.4363   -3.3078 H   0  0  0  0  0  0
    4.4475   -4.2817   -1.5300 H   0  0  0  0  0  0
    2.3498   -3.4581   -2.2824 H   0  0  0  0  0  0
  1 17  2  0  0  0
  2 20  2  0  0  0
  3  4  1  0  0  0
  3  9  1  0  0  0
  3 11  1  0  0  0
  4 10  2  0  0  0
  5  9  1  0  0  0
  5 17  1  0  0  0
  5 40  1  0  0  0
  6 17  1  0  0  0
  6 18  1  0  0  0
  6 41  1  0  0  0
  7 20  1  0  0  0
  7 34  1  0  0  0
  7 35  1  0  0  0
  8 37  1  0  0  0
  8 38  1  0  0  0
  8 39  1  0  0  0
  8 78  1  0  0  0
  9 12  2  0  0  0
 10 12  1  0  0  0
 10 13  1  0  0  0
 11 14  2  0  0  0
 11 16  1  0  0  0
 12 42  1  0  0  0
 13 24  1  0  0  0
 13 25  1  0  0  0
 13 26  1  0  0  0
 14 15  1  0  0  0
 14 43  1  0  0  0
 15 20  1  0  0  0
 15 21  2  0  0  0
 16 23  2  0  0  0
 16 44  1  0  0  0
 18 19  1  0  0  0
 18 27  2  0  0  0
 19 22  2  0  0  0
 19 28  1  0  0  0
 21 23  1  0  0  0
 21 45  1  0  0  0
 22 29  1  0  0  0
 22 30  1  0  0  0
 23 46  1  0  0  0
 24 47  1  0  0  0
 24 48  1  0  0  0
 24 49  1  0  0  0
 25 50  1  0  0  0
 25 51  1  0  0  0
 25 52  1  0  0  0
 26 53  1  0  0  0
 26 54  1  0  0  0
 26 55  1  0  0  0
 27 31  1  0  0  0
 27 56  1  0  0  0
 28 32  2  0  0  0
 28 57  1  0  0  0
 29 31  2  0  0  0
 29 58  1  0  0  0
 30 33  2  0  0  0
 30 59  1  0  0  0
 31 60  1  0  0  0
 32 33  1  0  0  0
 32 61  1  0  0  0
 33 62  1  0  0  0
 34 36  1  0  0  0
 34 63  1  0  0  0
 34 64  1  0  0  0
 35 65  1  0  0  0
 35 66  1  0  0  0
 35 67  1  0  0  0
 36 37  1  0  0  0
 36 68  1  0  0  0
 36 69  1  0  0  0
 37 70  1  0  0  0
 37 71  1  0  0  0
 38 72  1  0  0  0
 38 73  1  0  0  0
 38 74  1  0  0  0
 39 75  1  0  0  0
 39 76  1  0  0  0
 39 77  1  0  0  0
M  CHG  1   8   1
M  END
> <chembl_id>
CHEMBL1964948

> <chembl_pref_name>
None

> <s_m_source_file>
sdf/inactives_sanitized.sdf

> <i_m_source_file_index>
14

> <i_lp_mmshare_version>
49012

> <i_m_ct_stereo_status>
1

> <i_f3d_flags>
0

> <s_epik_input>
W2NIXTFbY0hdW2NIXVtjSF1jKGMxMilbY0hdW2NIXVtjSF1jMltOSF1DKD1PKVtOSF1jM1tjSF1jKEMoW0NIM10pKFtDSDNdKVtDSDNdKW5uMy1jNFtjSF1jKFtjSF1bY0hdW2NIXTQpQyg9TylOKFtDSDNdKVtDSDJdW0NIMl1bQ0gyXU4oW0NIM10pW0NIM10=

> <s_epik_cmdline>
J2VwaWtfcHl0aG9uJywgJy1waHQnLCAnMC41JywgJy1waCcsICc3LjUnLCAnLW50JywgJy1tYScsICcyMDAnLCAnLWltYWUnLCAnPGluZmlsZS5tYWU+JywgJy1vbWFlJywgJzxvdXRmaWxlLm1hZT4n

> <r_lp_tautomer_probability>
1

> <r_epik_Ionization_Penalty>
  0.0026

> <r_epik_Ionization_Penalty_Charging>
  0.0026

> <r_epik_Ionization_Penalty_Neutral>
  0.0000

> <r_epik_State_Penalty>
 -0.0000

> <r_epik_Charging_Adjusted_Penalty>
0.00256370694200261

> <i_epik_Tot_Q>
1

> <i_epik_Tot_abs_Q>
1

> <s_lp_Force_Field>
OPLS3e

> <r_lp_Energy>
82.311983

> <b_lp_Chiralities_Consistent>
1

> <s_lp_Variant>
sdf/inactives_sanitized.sdf:14-1

$$$$
sdf/inactives_sanitized.sdf:15
                    3D
 Schrodinger Suite 2020-1.
 56 61  0  0  1  0            999 V2000
   -6.4132   -0.6140    0.0030 F   0  0  0  0  0  0
   -0.7096    2.2000   -0.0309 O   0  0  0  0  0  0
    3.9292    2.8132    2.2425 N   0  0  0  0  0  0
   -0.0647    0.0050   -0.0425 N   0  0  0  0  0  0
    4.9881    5.0073    1.9353 C   0  0  0  0  0  0
    4.8571    4.9081    0.4066 C   0  0  2  0  0  0
    4.0745    3.6719   -0.0760 C   0  0  2  0  0  0
    4.4934    3.9873    2.7700 C   0  0  0  0  0  0
    4.2468    2.4410    0.8657 C   0  0  2  0  0  0
    5.5775    6.1695    2.5464 C   0  0  0  0  0  0
    5.6998    6.2291    3.9725 C   0  0  0  0  0  0
    3.4610    1.2183    0.3889 C   0  0  0  0  0  0
    6.1605    4.7797   -0.3621 C   0  0  0  0  0  0
    4.6066    3.4209   -1.4973 C   0  0  0  0  0  0
    4.6406    4.0528    4.1514 C   0  0  0  0  0  0
    5.2302    5.1530    4.7550 C   0  0  0  0  0  0
    6.0047    3.9965   -1.4421 C   0  0  0  0  0  0
    6.0515    7.2865    1.7960 C   0  0  0  0  0  0
    2.0603    1.2151    0.4130 C   0  0  0  0  0  0
    6.2895    7.3646    4.5829 C   0  0  0  0  0  0
    4.1404    0.0917   -0.0854 C   0  0  0  0  0  0
    1.3390    0.0970   -0.0391 C   0  0  0  0  0  0
    6.6231    8.3876    2.4262 C   0  0  0  0  0  0
    6.7436    8.4258    3.8086 C   0  0  0  0  0  0
    3.4318   -1.0270   -0.5191 C   0  0  0  0  0  0
    2.0382   -1.0259   -0.4909 C   0  0  0  0  0  0
   -0.9834    0.9981   -0.0092 C   0  0  0  0  0  0
   -2.4302    0.5510    0.0001 C   0  0  0  0  0  0
   -3.4309    1.4291   -0.4420 C   0  0  0  0  0  0
   -2.8003   -0.7270    0.4525 C   0  0  0  0  0  0
   -5.1155   -0.2338    0.0043 C   0  0  0  0  0  0
   -4.7671    1.0377   -0.4418 C   0  0  0  0  0  0
   -4.1372   -1.1165    0.4530 C   0  0  0  0  0  0
    3.7358    2.0347    2.8560 H   0  0  0  0  0  0
   -0.4239   -0.9353   -0.1161 H   0  0  0  0  0  0
    4.3342    5.8083    0.0777 H   0  0  0  0  0  0
    3.0123    3.9211   -0.1220 H   0  0  0  0  0  0
    5.2997    2.1518    0.8674 H   0  0  0  0  0  0
    7.0518    5.3311   -0.1019 H   0  0  0  0  0  0
    4.6237    2.3633   -1.7592 H   0  0  0  0  0  0
    3.9978    3.9226   -2.2505 H   0  0  0  0  0  0
    4.2891    3.2431    4.7751 H   0  0  0  0  0  0
    5.3271    5.1908    5.8307 H   0  0  0  0  0  0
    6.7514    3.7791   -2.1916 H   0  0  0  0  0  0
    5.9708    7.2966    0.7201 H   0  0  0  0  0  0
    1.5556    2.0872    0.7990 H   0  0  0  0  0  0
    6.3834    7.4047    5.6587 H   0  0  0  0  0  0
    5.2203    0.0782   -0.1149 H   0  0  0  0  0  0
    6.9762    9.2200    1.8352 H   0  0  0  0  0  0
    7.1900    9.2863    4.2848 H   0  0  0  0  0  0
    3.9633   -1.8958   -0.8783 H   0  0  0  0  0  0
    1.5061   -1.9025   -0.8321 H   0  0  0  0  0  0
   -3.1828    2.4203   -0.7950 H   0  0  0  0  0  0
   -2.0629   -1.4297    0.8130 H   0  0  0  0  0  0
   -5.5302    1.7191   -0.7879 H   0  0  0  0  0  0
   -4.4144   -2.1004    0.8015 H   0  0  0  0  0  0
  1 31  1  0  0  0
  2 27  2  0  0  0
  3  8  1  0  0  0
  3  9  1  0  0  0
  3 34  1  0  0  0
  4 22  1  0  0  0
  4 27  1  0  0  0
  4 35  1  0  0  0
  5  6  1  0  0  0
  5  8  2  0  0  0
  5 10  1  0  0  0
  6  7  1  0  0  0
  6 13  1  0  0  0
  6 36  1  0  0  0
  7  9  1  0  0  0
  7 14  1  0  0  0
  7 37  1  0  0  0
  8 15  1  0  0  0
  9 12  1  0  0  0
  9 38  1  0  0  0
 10 11  2  0  0  0
 10 18  1  0  0  0
 11 16  1  0  0  0
 11 20  1  0  0  0
 12 19  2  0  0  0
 12 21  1  0  0  0
 13 17  2  0  0  0
 13 39  1  0  0  0
 14 17  1  0  0  0
 14 40  1  0  0  0
 14 41  1  0  0  0
 15 16  2  0  0  0
 15 42  1  0  0  0
 16 43  1  0  0  0
 17 44  1  0  0  0
 18 23  2  0  0  0
 18 45  1  0  0  0
 19 22  1  0  0  0
 19 46  1  0  0  0
 20 24  2  0  0  0
 20 47  1  0  0  0
 21 25  2  0  0  0
 21 48  1  0  0  0
 22 26  2  0  0  0
 23 24  1  0  0  0
 23 49  1  0  0  0
 24 50  1  0  0  0
 25 26  1  0  0  0
 25 51  1  0  0  0
 26 52  1  0  0  0
 27 28  1  0  0  0
 28 29  2  0  0  0
 28 30  1  0  0  0
 29 32  1  0  0  0
 29 53  1  0  0  0
 30 33  2  0  0  0
 30 54  1  0  0  0
 31 32  2  0  0  0
 31 33  1  0  0  0
 32 55  1  0  0  0
 33 56  1  0  0  0
M  END
> <chembl_id>
CHEMBL1992042

> <chembl_pref_name>
None

> <s_m_source_file>
sdf/inactives_sanitized.sdf

> <i_m_source_file_index>
15

> <i_lp_mmshare_version>
49012

> <i_m_ct_stereo_status>
1

> <i_f3d_flags>
0

> <s_epik_input>
W2NIXTFbY0hdYyhGKVtjSF1bY0hdYzFDKD1PKVtOSF1jKFtjSF1bY0hdW2NIXTIpW2NIXWMyW0NAQEhdKFtDQEhdM1tDQEBIXTRbQ0hdPVtDSF1bQ0gyXTMpW05IXWMoYzQ1KVtjSF1bY0hdYzZjNVtjSF1bY0hdW2NIXVtjSF02

> <s_epik_cmdline>
J2VwaWtfcHl0aG9uJywgJy1waHQnLCAnMC41JywgJy1waCcsICc3LjUnLCAnLW50JywgJy1tYScsICcyMDAnLCAnLWltYWUnLCAnPGluZmlsZS5tYWU+JywgJy1vbWFlJywgJzxvdXRmaWxlLm1hZT4n

> <r_lp_tautomer_probability>
1

> <r_epik_Ionization_Penalty>
  0.0008

> <r_epik_Ionization_Penalty_Charging>
  0.0000

> <r_epik_Ionization_Penalty_Neutral>
  0.0008

> <r_epik_State_Penalty>
 -0.0000

> <r_epik_Charging_Adjusted_Penalty>
0

> <i_epik_Tot_Q>
0

> <i_epik_Tot_abs_Q>
0

> <s_lp_Force_Field>
OPLS3e

> <r_lp_Energy>
56.127496

> <b_lp_Chiralities_Consistent>
1

> <s_lp_Variant>
sdf/inactives_sanitized.sdf:15-1

$$$$
sdf/inactives_sanitized.sdf:16
                    3D
 Schrodinger Suite 2020-1.
 51 54  0  0  1  0            999 V2000
   -1.7129   -1.2027    1.0117 O   0  0  0  0  0  0
    1.4125   -5.4172    2.3407 N   0  0  0  0  0  0
    2.3844   -5.9661    0.4025 N   0  0  0  0  0  0
    2.4504   -7.8831    3.4904 N   0  0  0  0  0  0
    3.0925   -9.0325    3.7591 N   0  0  0  0  0  0
   -0.0303    0.0278    0.0905 N   0  0  0  0  0  0
   -1.2441    0.3348   -3.4011 N   0  0  0  0  0  0
    2.1945   -6.3200    1.6519 C   0  0  0  0  0  0
    2.7402   -7.5388    2.2564 C   0  0  0  0  0  0
    1.0845   -4.4021    1.4729 C   0  0  0  0  0  0
    1.7084   -4.7825    0.2610 C   0  0  0  0  0  0
    3.6249   -8.5052    1.6675 C   0  0  0  0  0  0
    3.8346   -9.4713    2.6843 C   0  0  0  0  0  0
    0.2363   -2.4112    0.4596 C   0  0  0  0  0  0
    0.3365   -3.2283    1.5968 C   0  0  0  0  0  0
    1.5743   -3.9691   -0.8710 C   0  0  0  0  0  0
    4.2619   -8.6764    0.4265 C   0  0  0  0  0  0
    0.8300   -2.7950   -0.7532 C   0  0  0  0  0  0
   -0.5726   -1.1379    0.5455 C   0  0  0  0  0  0
    4.6517  -10.5921    2.5019 C   0  0  0  0  0  0
    5.0785   -9.7913    0.2395 C   0  0  0  0  0  0
    5.2666  -10.7259    1.2559 C   0  0  0  0  0  0
   -0.8485    1.2504   -0.0016 C   0  0  0  0  0  0
    1.4179    0.2620   -0.0470 C   0  0  0  0  0  0
   -1.9964    1.1774   -1.0271 C   0  0  0  0  0  0
    2.1153    0.5764    1.2902 C   0  0  0  0  0  0
   -1.5758    0.7058   -2.3568 C   0  0  0  0  0  0
    3.6207    0.8383    1.1179 C   0  0  0  0  0  0
    4.3315    1.1371    2.4448 C   0  0  0  0  0  0
    1.1617   -5.5292    3.3124 H   0  0  0  0  0  0
    2.9986   -9.4687    4.6649 H   0  0  0  0  0  0
   -0.1332   -2.9573    2.5319 H   0  0  0  0  0  0
    2.0303   -4.2407   -1.8118 H   0  0  0  0  0  0
    4.1277   -7.9618   -0.3719 H   0  0  0  0  0  0
    0.7150   -2.1736   -1.6307 H   0  0  0  0  0  0
    4.8062  -11.3233    3.2816 H   0  0  0  0  0  0
    5.5743   -9.9331   -0.7096 H   0  0  0  0  0  0
    5.9065  -11.5770    1.0740 H   0  0  0  0  0  0
   -1.2458    1.4888    0.9860 H   0  0  0  0  0  0
   -0.2197    2.1017   -0.2655 H   0  0  0  0  0  0
    1.9222   -0.5842   -0.5085 H   0  0  0  0  0  0
    1.5920    1.0843   -0.7428 H   0  0  0  0  0  0
   -2.7873    0.5153   -0.6756 H   0  0  0  0  0  0
   -2.4480    2.1617   -1.1505 H   0  0  0  0  0  0
    1.6485    1.4491    1.7500 H   0  0  0  0  0  0
    1.9765   -0.2584    1.9793 H   0  0  0  0  0  0
    4.0917   -0.0271    0.6485 H   0  0  0  0  0  0
    3.7711    1.6760    0.4351 H   0  0  0  0  0  0
    5.3947    1.3177    2.2842 H   0  0  0  0  0  0
    4.2400    0.3017    3.1399 H   0  0  0  0  0  0
    3.9148    2.0222    2.9268 H   0  0  0  0  0  0
  1 19  2  0  0  0
  2  8  1  0  0  0
  2 10  1  0  0  0
  2 30  1  0  0  0
  3  8  2  0  0  0
  3 11  1  0  0  0
  4  5  1  0  0  0
  4  9  2  0  0  0
  5 13  1  0  0  0
  5 31  1  0  0  0
  6 19  1  0  0  0
  6 23  1  0  0  0
  6 24  1  0  0  0
  7 27  3  0  0  0
  8  9  1  0  0  0
  9 12  1  0  0  0
 10 11  2  0  0  0
 10 15  1  0  0  0
 11 16  1  0  0  0
 12 13  2  0  0  0
 12 17  1  0  0  0
 13 20  1  0  0  0
 14 15  2  0  0  0
 14 18  1  0  0  0
 14 19  1  0  0  0
 15 32  1  0  0  0
 16 18  2  0  0  0
 16 33  1  0  0  0
 17 21  2  0  0  0
 17 34  1  0  0  0
 18 35  1  0  0  0
 20 22  2  0  0  0
 20 36  1  0  0  0
 21 22  1  0  0  0
 21 37  1  0  0  0
 22 38  1  0  0  0
 23 25  1  0  0  0
 23 39  1  0  0  0
 23 40  1  0  0  0
 24 26  1  0  0  0
 24 41  1  0  0  0
 24 42  1  0  0  0
 25 27  1  0  0  0
 25 43  1  0  0  0
 25 44  1  0  0  0
 26 28  1  0  0  0
 26 45  1  0  0  0
 26 46  1  0  0  0
 28 29  1  0  0  0
 28 47  1  0  0  0
 28 48  1  0  0  0
 29 49  1  0  0  0
 29 50  1  0  0  0
 29 51  1  0  0  0
M  END
> <chembl_id>
CHEMBL1983348

> <chembl_pref_name>
None

> <s_m_source_file>
sdf/inactives_sanitized.sdf

> <i_m_source_file_index>
16

> <i_lp_mmshare_version>
49012

> <i_m_ct_stereo_status>
1

> <i_f3d_flags>
0

> <s_epik_input>
TiNDW0NIMl1bQ0gyXU4oW0NIMl1bQ0gyXVtDSDJdW0NIM10pQyg9TyljKFtjSF0xKVtjSF1bY0hdYyhjMTIpbmMoW25IXTIpLWMzbltuSF1jKGMzNClbY0hdW2NIXVtjSF1bY0hdNA==

> <s_epik_cmdline>
J2VwaWtfcHl0aG9uJywgJy1waHQnLCAnMC41JywgJy1waCcsICc3LjUnLCAnLW50JywgJy1tYScsICcyMDAnLCAnLWltYWUnLCAnPGluZmlsZS5tYWU+JywgJy1vbWFlJywgJzxvdXRmaWxlLm1hZT4n

> <r_lp_tautomer_probability>
1

> <r_epik_Ionization_Penalty>
  0.0005

> <r_epik_Ionization_Penalty_Charging>
  0.0000

> <r_epik_Ionization_Penalty_Neutral>
  0.0005

> <r_epik_State_Penalty>
 -0.0000

> <r_epik_Charging_Adjusted_Penalty>
0

> <i_epik_Tot_Q>
0

> <i_epik_Tot_abs_Q>
0

> <s_lp_Force_Field>
OPLS3e

> <r_lp_Energy>
40.334969

> <b_lp_Chiralities_Consistent>
1

> <s_lp_Variant>
sdf/inactives_sanitized.sdf:16-1

$$$$
sdf/inactives_sanitized.sdf:17
                    3D
 Schrodinger Suite 2020-1.
 64 68  0  0  1  0            999 V2000
    1.3815   -7.1765   -4.2872 F   0  0  0  0  0  0
    5.7758   -8.9784   -3.9985 F   0  0  0  0  0  0
    0.2852    2.2997   -0.1942 O   0  0  0  0  0  0
    2.2754    0.8683    0.9972 O   0  0  0  0  0  0
    2.2936   -1.2601    0.1610 N   0  0  0  0  0  0
    4.6284   -0.6918    0.4321 N   0  0  0  0  0  0
    5.7728   -1.3945    0.4877 N   0  0  0  0  0  0
   -4.0184   -0.0455   -0.2901 N   0  0  0  0  0  0
   -5.5558    0.2951   -2.8050 N   0  3  0  0  0  0
    4.1513   -2.8908    0.2093 C   0  0  0  0  0  0
    3.6474   -1.5529    0.2708 C   0  0  0  0  0  0
    5.5536   -2.7506    0.3568 C   0  0  0  0  0  0
    0.1876   -0.0572    0.2814 C   0  0  0  0  0  0
    1.6862   -0.1028    0.5163 C   0  0  0  0  0  0
    3.6042   -4.1747    0.0545 C   0  0  0  0  0  0
   -0.4716    1.1465   -0.0483 C   0  0  0  0  0  0
    4.4623   -5.2785    0.0429 C   0  0  0  0  0  0
   -2.6279   -0.0433   -0.1242 C   0  0  0  0  0  0
    6.4204   -3.8471    0.3544 C   0  0  0  0  0  0
   -1.8665    1.1309   -0.2357 C   0  0  0  0  0  0
    5.8407   -5.1073    0.1986 C   0  0  0  0  0  0
   -0.5730   -1.2277    0.4155 C   0  0  0  0  0  0
   -1.9499   -1.2182    0.2211 C   0  0  0  0  0  0
    3.8851   -6.6808   -0.0899 C   0  0  0  0  0  0
    3.7843   -7.1570   -1.5315 C   0  0  0  0  0  0
   -4.7981    1.1724   -0.5894 C   0  0  0  0  0  0
   -4.7062   -1.1714   -0.9561 C   0  0  0  0  0  0
    4.8461   -7.8530   -2.1194 C   0  0  0  0  0  0
    2.6144   -6.9371   -2.2665 C   0  0  0  0  0  0
    2.5133   -7.3955   -3.5807 C   0  0  0  0  0  0
    4.7446   -8.3105   -3.4338 C   0  0  0  0  0  0
   -4.8655    1.4810   -2.1020 C   0  0  0  0  0  0
   -4.7727   -0.9957   -2.4910 C   0  0  0  0  0  0
    3.5788   -8.0810   -4.1646 C   0  0  0  0  0  0
   -0.3431    3.5379   -0.5091 C   0  0  0  0  0  0
   -5.6314    0.5301   -4.3259 C   0  0  0  0  0  0
    1.7017   -2.0219   -0.1350 H   0  0  0  0  0  0
    6.6553   -0.9198    0.6124 H   0  0  0  0  0  0
    2.5377   -4.3073   -0.0551 H   0  0  0  0  0  0
    7.4883   -3.7342    0.4706 H   0  0  0  0  0  0
   -2.3628    2.0506   -0.4955 H   0  0  0  0  0  0
    6.4856   -5.9744    0.1966 H   0  0  0  0  0  0
   -0.1082   -2.1637    0.6915 H   0  0  0  0  0  0
   -2.4792   -2.1470    0.3683 H   0  0  0  0  0  0
    4.4930   -7.3833    0.4836 H   0  0  0  0  0  0
    2.8981   -6.7158    0.3751 H   0  0  0  0  0  0
   -5.8114    1.0395   -0.2054 H   0  0  0  0  0  0
   -4.4143    2.0272   -0.0330 H   0  0  0  0  0  0
   -4.2402   -2.1274   -0.7257 H   0  0  0  0  0  0
   -5.7176   -1.2538   -0.5537 H   0  0  0  0  0  0
    5.7516   -8.0383   -1.5598 H   0  0  0  0  0  0
    1.7830   -6.4099   -1.8216 H   0  0  0  0  0  0
   -3.8796    1.6101   -2.5536 H   0  0  0  0  0  0
   -5.4779    2.3601   -2.3073 H   0  0  0  0  0  0
   -5.3200   -1.8108   -2.9669 H   0  0  0  0  0  0
   -3.7847   -0.9063   -2.9476 H   0  0  0  0  0  0
    3.5002   -8.4364   -5.1815 H   0  0  0  0  0  0
    0.4137    4.3202   -0.5628 H   0  0  0  0  0  0
   -1.0624    3.8285    0.2581 H   0  0  0  0  0  0
   -0.8440    3.4979   -1.4773 H   0  0  0  0  0  0
   -4.6134    0.6237   -4.7083 H   0  0  0  0  0  0
   -6.2051    1.4446   -4.4815 H   0  0  0  0  0  0
   -6.1457   -0.3297   -4.7574 H   0  0  0  0  0  0
   -6.4901    0.2017   -2.4311 H   0  0  0  0  0  0
  1 30  1  0  0  0
  2 31  1  0  0  0
  3 16  1  0  0  0
  3 35  1  0  0  0
  4 14  2  0  0  0
  5 11  1  0  0  0
  5 14  1  0  0  0
  5 37  1  0  0  0
  6  7  1  0  0  0
  6 11  2  0  0  0
  7 12  1  0  0  0
  7 38  1  0  0  0
  8 18  1  0  0  0
  8 26  1  0  0  0
  8 27  1  0  0  0
  9 32  1  0  0  0
  9 33  1  0  0  0
  9 36  1  0  0  0
  9 64  1  0  0  0
 10 11  1  0  0  0
 10 12  2  0  0  0
 10 15  1  0  0  0
 12 19  1  0  0  0
 13 14  1  0  0  0
 13 16  2  0  0  0
 13 22  1  0  0  0
 15 17  2  0  0  0
 15 39  1  0  0  0
 16 20  1  0  0  0
 17 21  1  0  0  0
 17 24  1  0  0  0
 18 20  2  0  0  0
 18 23  1  0  0  0
 19 21  2  0  0  0
 19 40  1  0  0  0
 20 41  1  0  0  0
 21 42  1  0  0  0
 22 23  2  0  0  0
 22 43  1  0  0  0
 23 44  1  0  0  0
 24 25  1  0  0  0
 24 45  1  0  0  0
 24 46  1  0  0  0
 25 28  2  0  0  0
 25 29  1  0  0  0
 26 32  1  0  0  0
 26 47  1  0  0  0
 26 48  1  0  0  0
 27 33  1  0  0  0
 27 49  1  0  0  0
 27 50  1  0  0  0
 28 31  1  0  0  0
 28 51  1  0  0  0
 29 30  2  0  0  0
 29 52  1  0  0  0
 30 34  1  0  0  0
 31 34  2  0  0  0
 32 53  1  0  0  0
 32 54  1  0  0  0
 33 55  1  0  0  0
 33 56  1  0  0  0
 34 57  1  0  0  0
 35 58  1  0  0  0
 35 59  1  0  0  0
 35 60  1  0  0  0
 36 61  1  0  0  0
 36 62  1  0  0  0
 36 63  1  0  0  0
M  CHG  1   9   1
M  END
> <chembl_id>
CHEMBL1973961

> <chembl_pref_name>
None

> <s_m_source_file>
sdf/inactives_sanitized.sdf

> <i_m_source_file_index>
17

> <i_lp_mmshare_version>
49012

> <i_m_ct_stereo_status>
1

> <i_f3d_flags>
0

> <s_epik_input>
RmMoW2NIXTEpW2NIXWMoRilbY0hdYzFbQ0gyXWMoW2NIXTIpW2NIXVtjSF1jKGMyMylbbkhdbmMzW05IXUMoPU8pYzRjKE9bQ0gzXSlbY0hdYyhbY0hdW2NIXTQpTjVbQ0gyXVtDSDJdTihbQ0gzXSlbQ0gyXVtDSDJdNQ==

> <s_epik_cmdline>
J2VwaWtfcHl0aG9uJywgJy1waHQnLCAnMC41JywgJy1waCcsICc3LjUnLCAnLW50JywgJy1tYScsICcyMDAnLCAnLWltYWUnLCAnPGluZmlsZS5tYWU+JywgJy1vbWFlJywgJzxvdXRmaWxlLm1hZT4n

> <r_lp_tautomer_probability>
0.980392156862745

> <r_epik_Ionization_Penalty>
  0.1844

> <r_epik_Ionization_Penalty_Charging>
  0.1844

> <r_epik_Ionization_Penalty_Neutral>
  0.0000

> <r_epik_State_Penalty>
  0.1740

> <r_epik_Charging_Adjusted_Penalty>
0.358412825985856

> <i_epik_Tot_Q>
1

> <i_epik_Tot_abs_Q>
1

> <s_lp_Force_Field>
OPLS3e

> <r_lp_Energy>
71.214291

> <b_lp_Chiralities_Consistent>
1

> <s_lp_Variant>
sdf/inactives_sanitized.sdf:17-1

$$$$
sdf/inactives_sanitized.sdf:18
                    3D
 Schrodinger Suite 2020-1.
 27 29  0  0  1  0            999 V2000
   -6.2556   -0.9095   -0.0000 Br  0  0  0  0  0  0
   -0.7376    1.2225    0.0000 N   0  0  0  0  0  0
   -3.4316   -1.0335   -0.0000 N   0  0  0  0  0  0
   -3.1104    1.8105    0.0000 N   0  0  0  0  0  0
   -2.2195   -0.4637   -0.0000 C   0  0  0  0  0  0
   -2.0870    0.9483   -0.0000 C   0  0  0  0  0  0
    0.0016    0.0521   -0.0000 C   0  0  0  0  0  0
   -0.8999   -1.0126   -0.0000 C   0  0  0  0  0  0
    1.5001    0.0424   -0.0000 C   0  0  0  0  0  0
   -4.4969   -0.1833   -0.0000 C   0  0  0  0  0  0
   -4.3313    1.2068   -0.0000 C   0  0  0  0  0  0
    2.1895   -1.1760    0.0000 C   0  0  0  0  0  0
    2.2289    1.2387   -0.0000 C   0  0  0  0  0  0
    3.5817   -1.1992    0.0000 C   0  0  0  0  0  0
    3.6210    1.2172   -0.0000 C   0  0  0  0  0  0
    4.2985   -0.0026   -0.0000 C   0  0  0  0  0  0
    5.8164   -0.0356   -0.0000 C   0  0  0  0  0  0
   -0.3010    2.1329    0.0000 H   0  0  0  0  0  0
   -0.6334   -2.0589   -0.0000 H   0  0  0  0  0  0
   -5.1898    1.8625   -0.0000 H   0  0  0  0  0  0
    1.6551   -2.1145    0.0000 H   0  0  0  0  0  0
    1.7245    2.1936   -0.0000 H   0  0  0  0  0  0
    4.1003   -2.1471    0.0000 H   0  0  0  0  0  0
    4.1680    2.1486   -0.0000 H   0  0  0  0  0  0
    6.2517    0.9647   -0.0000 H   0  0  0  0  0  0
    6.1812   -0.5687   -0.8786 H   0  0  0  0  0  0
    6.1812   -0.5687    0.8786 H   0  0  0  0  0  0
  1 10  1  0  0  0
  2  6  1  0  0  0
  2  7  1  0  0  0
  2 18  1  0  0  0
  3  5  2  0  0  0
  3 10  1  0  0  0
  4  6  2  0  0  0
  4 11  1  0  0  0
  5  6  1  0  0  0
  5  8  1  0  0  0
  7  8  2  0  0  0
  7  9  1  0  0  0
  8 19  1  0  0  0
  9 12  2  0  0  0
  9 13  1  0  0  0
 10 11  2  0  0  0
 11 20  1  0  0  0
 12 14  1  0  0  0
 12 21  1  0  0  0
 13 15  2  0  0  0
 13 22  1  0  0  0
 14 16  2  0  0  0
 14 23  1  0  0  0
 15 16  1  0  0  0
 15 24  1  0  0  0
 16 17  1  0  0  0
 17 25  1  0  0  0
 17 26  1  0  0  0
 17 27  1  0  0  0
M  END
> <chembl_id>
CHEMBL1965169

> <chembl_pref_name>
None

> <s_m_source_file>
sdf/inactives_sanitized.sdf

> <i_m_source_file_index>
18

> <i_lp_mmshare_version>
49012

> <i_m_ct_stereo_status>
1

> <i_f3d_flags>
0

> <s_epik_input>
QnJjKG4xKVtjSF1uYyhjMTIpW25IXWMoW2NIXTIpLWMzW2NIXVtjSF1jKFtDSDNdKVtjSF1bY0hdMw==

> <s_epik_cmdline>
J2VwaWtfcHl0aG9uJywgJy1waHQnLCAnMC41JywgJy1waCcsICc3LjUnLCAnLW50JywgJy1tYScsICcyMDAnLCAnLWltYWUnLCAnPGluZmlsZS5tYWU+JywgJy1vbWFlJywgJzxvdXRmaWxlLm1hZT4n

> <r_lp_tautomer_probability>
1

> <r_epik_Ionization_Penalty>
  0.0000

> <r_epik_Ionization_Penalty_Charging>
  0.0000

> <r_epik_Ionization_Penalty_Neutral>
  0.0000

> <r_epik_State_Penalty>
 -0.0000

> <r_epik_Charging_Adjusted_Penalty>
0

> <i_epik_Tot_Q>
0

> <i_epik_Tot_abs_Q>
0

> <s_lp_Force_Field>
OPLS3e

> <r_lp_Energy>
21.081223

> <b_lp_Chiralities_Consistent>
1

> <s_lp_Variant>
sdf/inactives_sanitized.sdf:18-1

$$$$
sdf/inactives_sanitized.sdf:19
                    3D
 Schrodinger Suite 2020-1.
 27 29  0  0  1  0            999 V2000
   -2.9763    4.8474   -0.0147 F   0  0  0  0  0  0
    3.4416   -0.7857    0.0004 N   0  0  0  0  0  0
    2.1418   -1.1306    0.0002 N   0  0  0  0  0  0
    0.0871    0.0018   -0.0002 N   0  0  0  0  0  0
    2.3059    1.1334    0.0000 C   0  0  0  0  0  0
    2.1435    2.5353   -0.0005 C   0  0  0  0  0  0
    3.6152    0.5841    0.0005 C   0  0  0  0  0  0
    1.4529   -0.0197    0.0000 C   0  0  0  0  0  0
    0.8014    3.1583   -0.0037 C   0  0  0  0  0  0
    3.2964    3.3262    0.0001 C   0  0  0  0  0  0
    4.7639    1.3806    0.0006 C   0  0  0  0  0  0
    4.5702    2.7618    0.0007 C   0  0  0  0  0  0
    0.1641    3.4455   -1.2140 C   0  0  0  0  0  0
    0.1583    3.4481    1.2031 C   0  0  0  0  0  0
   -1.7409    4.2975   -0.0110 C   0  0  0  0  0  0
   -1.1068    4.0144   -1.2187 C   0  0  0  0  0  0
   -1.1127    4.0170    1.2003 C   0  0  0  0  0  0
    4.1569   -1.4983    0.0002 H   0  0  0  0  0  0
   -0.4284    0.8706   -0.0001 H   0  0  0  0  0  0
   -0.4552   -0.8502   -0.0002 H   0  0  0  0  0  0
    3.2035    4.4029   -0.0003 H   0  0  0  0  0  0
    5.7572    0.9559    0.0006 H   0  0  0  0  0  0
    5.4319    3.4133    0.0007 H   0  0  0  0  0  0
    0.6518    3.2228   -2.1523 H   0  0  0  0  0  0
    0.6414    3.2274    2.1441 H   0  0  0  0  0  0
   -1.5994    4.2326   -2.1548 H   0  0  0  0  0  0
   -1.6099    4.2373    2.1335 H   0  0  0  0  0  0
  1 15  1  0  0  0
  2  3  1  0  0  0
  2  7  1  0  0  0
  2 18  1  0  0  0
  3  8  2  0  0  0
  4  8  1  0  0  0
  4 19  1  0  0  0
  4 20  1  0  0  0
  5  6  1  0  0  0
  5  7  2  0  0  0
  5  8  1  0  0  0
  6  9  1  0  0  0
  6 10  2  0  0  0
  7 11  1  0  0  0
  9 13  2  0  0  0
  9 14  1  0  0  0
 10 12  1  0  0  0
 10 21  1  0  0  0
 11 12  2  0  0  0
 11 22  1  0  0  0
 12 23  1  0  0  0
 13 16  1  0  0  0
 13 24  1  0  0  0
 14 17  2  0  0  0
 14 25  1  0  0  0
 15 16  2  0  0  0
 15 17  1  0  0  0
 16 26  1  0  0  0
 17 27  1  0  0  0
M  END
> <chembl_id>
CHEMBL1971519

> <chembl_pref_name>
None

> <s_m_source_file>
sdf/inactives_sanitized.sdf

> <i_m_source_file_index>
19

> <i_lp_mmshare_version>
49012

> <i_m_ct_stereo_status>
1

> <i_f3d_flags>
0

> <s_epik_input>
W2NIXTFbY0hdYyhGKVtjSF1bY0hdYzEtYzJbY0hdW2NIXVtjSF1jKGMyMylbbkhdbmMzW05IMl0=

> <s_epik_cmdline>
J2VwaWtfcHl0aG9uJywgJy1waHQnLCAnMC41JywgJy1waCcsICc3LjUnLCAnLW50JywgJy1tYScsICcyMDAnLCAnLWltYWUnLCAnPGluZmlsZS5tYWU+JywgJy1vbWFlJywgJzxvdXRmaWxlLm1hZT4n

> <r_lp_tautomer_probability>
1

> <r_epik_Ionization_Penalty>
  0.0001

> <r_epik_Ionization_Penalty_Charging>
  0.0000

> <r_epik_Ionization_Penalty_Neutral>
  0.0001

> <r_epik_State_Penalty>
 -0.0000

> <r_epik_Charging_Adjusted_Penalty>
0

> <i_epik_Tot_Q>
0

> <i_epik_Tot_abs_Q>
0

> <s_lp_Force_Field>
OPLS3e

> <r_lp_Energy>
23.310241

> <b_lp_Chiralities_Consistent>
1

> <s_lp_Variant>
sdf/inactives_sanitized.sdf:19-1

$$$$
sdf/inactives_sanitized.sdf:20
                    3D
 Schrodinger Suite 2020-1.
 36 37  0  0  1  0            999 V2000
    2.3640   -1.3099    0.1204 S   0  0  0  0  0  0
    6.1099   -0.8178   -0.5236 O   0  0  0  0  0  0
    2.3663    1.2484   -0.1593 N   0  0  0  0  0  0
    0.1963    0.2501   -0.1307 N   0  0  0  0  0  0
    4.5809    1.8709   -0.1640 N   0  0  0  0  0  0
    3.9010   -0.4729    0.1034 C   0  0  0  0  0  0
    3.6320    0.8913   -0.0771 C   0  0  0  0  0  0
    5.1755   -1.1978    0.1847 C   0  0  0  0  0  0
    1.5653    0.2150   -0.0743 C   0  0  0  0  0  0
    5.3123   -2.4149    1.0555 C   0  0  0  0  0  0
    6.3016   -3.3643    0.7586 C   0  0  0  0  0  0
    4.5243   -2.5914    2.2034 C   0  0  0  0  0  0
    6.4739   -4.4833    1.5691 C   0  0  0  0  0  0
    4.6971   -3.7105    3.0136 C   0  0  0  0  0  0
   -0.6173    1.4490   -0.2613 C   0  0  0  0  0  0
    5.6685   -4.6534    2.6912 C   0  0  0  0  0  0
   -2.0733    1.1457   -0.6478 C   0  0  0  0  0  0
   -2.9254    2.4172   -0.8003 C   0  0  0  0  0  0
   -4.3815    2.1195   -1.1830 C   0  0  0  0  0  0
   -0.3440   -0.5746    0.0884 H   0  0  0  0  0  0
    5.5668    1.6563   -0.1171 H   0  0  0  0  0  0
    4.3294    2.8401   -0.2938 H   0  0  0  0  0  0
    6.9404   -3.2498   -0.1062 H   0  0  0  0  0  0
    3.7828   -1.8607    2.4917 H   0  0  0  0  0  0
    7.2319   -5.2145    1.3295 H   0  0  0  0  0  0
    4.0852   -3.8416    3.8939 H   0  0  0  0  0  0
   -0.5988    2.0018    0.6790 H   0  0  0  0  0  0
   -0.1755    2.1189   -1.0007 H   0  0  0  0  0  0
    5.8048   -5.5196    3.3217 H   0  0  0  0  0  0
   -2.0898    0.5829   -1.5827 H   0  0  0  0  0  0
   -2.5200    0.4921    0.1033 H   0  0  0  0  0  0
   -2.9097    2.9840    0.1317 H   0  0  0  0  0  0
   -2.4830    3.0644   -1.5590 H   0  0  0  0  0  0
   -4.9523    3.0422   -1.2892 H   0  0  0  0  0  0
   -4.8742    1.5119   -0.4233 H   0  0  0  0  0  0
   -4.4403    1.5839   -2.1310 H   0  0  0  0  0  0
  1  6  1  0  0  0
  1  9  1  0  0  0
  2  8  2  0  0  0
  3  7  1  0  0  0
  3  9  2  0  0  0
  4  9  1  0  0  0
  4 15  1  0  0  0
  4 20  1  0  0  0
  5  7  1  0  0  0
  5 21  1  0  0  0
  5 22  1  0  0  0
  6  7  2  0  0  0
  6  8  1  0  0  0
  8 10  1  0  0  0
 10 11  2  0  0  0
 10 12  1  0  0  0
 11 13  1  0  0  0
 11 23  1  0  0  0
 12 14  2  0  0  0
 12 24  1  0  0  0
 13 16  2  0  0  0
 13 25  1  0  0  0
 14 16  1  0  0  0
 14 26  1  0  0  0
 15 17  1  0  0  0
 15 27  1  0  0  0
 15 28  1  0  0  0
 16 29  1  0  0  0
 17 18  1  0  0  0
 17 30  1  0  0  0
 17 31  1  0  0  0
 18 19  1  0  0  0
 18 32  1  0  0  0
 18 33  1  0  0  0
 19 34  1  0  0  0
 19 35  1  0  0  0
 19 36  1  0  0  0
M  END
> <chembl_id>
CHEMBL2007479

> <chembl_pref_name>
None

> <s_m_source_file>
sdf/inactives_sanitized.sdf

> <i_m_source_file_index>
20

> <i_lp_mmshare_version>
49012

> <i_m_ct_stereo_status>
1

> <i_f3d_flags>
0

> <s_epik_input>
W0NIM11bQ0gyXVtDSDJdW0NIMl1bTkhdYyhuYzFbTkgyXSlzYzFDKD1PKWMyW2NIXVtjSF1bY0hdW2NIXVtjSF0y

> <s_epik_cmdline>
J2VwaWtfcHl0aG9uJywgJy1waHQnLCAnMC41JywgJy1waCcsICc3LjUnLCAnLW50JywgJy1tYScsICcyMDAnLCAnLWltYWUnLCAnPGluZmlsZS5tYWU+JywgJy1vbWFlJywgJzxvdXRmaWxlLm1hZT4n

> <r_lp_tautomer_probability>
1

> <r_epik_Ionization_Penalty>
  0.0003

> <r_epik_Ionization_Penalty_Charging>
  0.0000

> <r_epik_Ionization_Penalty_Neutral>
  0.0003

> <r_epik_State_Penalty>
 -0.0000

> <r_epik_Charging_Adjusted_Penalty>
0

> <i_epik_Tot_Q>
0

> <i_epik_Tot_abs_Q>
0

> <s_lp_Force_Field>
OPLS3e

> <r_lp_Energy>
18.102736

> <b_lp_Chiralities_Consistent>
1

> <s_lp_Variant>
sdf/inactives_sanitized.sdf:20-1

$$$$
sdf/inactives_sanitized.sdf:21
                    3D
 Schrodinger Suite 2020-1.
 42 44  0  0  1  0            999 V2000
    6.0771    0.0643   -0.3161 S   0  0  0  0  0  0
    7.7357   -0.8599   -2.1017 F   0  0  0  0  0  0
    6.0111    0.1754   -2.9217 F   0  0  0  0  0  0
   -0.5575    2.1671   -0.0134 O   0  0  0  0  0  0
    0.1363   -0.0161    0.0763 N   0  0  0  0  0  0
   -6.7582    4.2238    5.6855 N   0  0  0  0  0  0
   -4.2039    2.3468    3.5953 C   0  0  0  0  0  0
   -4.8669    2.9921    4.7676 C   0  0  0  0  0  0
   -2.9576    1.1333    1.3905 C   0  0  0  0  0  0
    1.5364    0.0836   -0.0350 C   0  0  0  0  0  0
    4.3175    0.0726   -0.2080 C   0  0  0  0  0  0
   -0.7957    0.9617    0.0709 C   0  0  0  0  0  0
   -3.4205    1.1962    3.7593 C   0  0  0  0  0  0
   -4.3486    2.8808    2.3075 C   0  0  0  0  0  0
   -2.2532    0.4913    0.1995 C   0  0  0  0  0  0
   -2.7994    0.5949    2.6686 C   0  0  0  0  0  0
   -3.7288    2.2832    1.2137 C   0  0  0  0  0  0
    2.2591   -1.0591    0.3195 C   0  0  0  0  0  0
    2.2195    1.2227   -0.4931 C   0  0  0  0  0  0
    3.6487   -1.0653    0.2379 C   0  0  0  0  0  0
    3.6095    1.2149   -0.5751 C   0  0  0  0  0  0
   -6.1150    3.6246    4.6509 C   0  0  0  0  0  0
   -4.2733    2.9961    6.0404 C   0  0  0  0  0  0
   -4.9156    3.6071    7.1186 C   0  0  0  0  0  0
    6.4322   -0.6329   -1.9499 C   0  0  0  0  0  0
   -6.1539    4.2082    6.8990 C   0  0  0  0  0  0
   -0.2027   -0.9537    0.2336 H   0  0  0  0  0  0
   -3.2914    0.7541    4.7363 H   0  0  0  0  0  0
   -4.9333    3.7746    2.1457 H   0  0  0  0  0  0
   -2.3077   -0.5953    0.2923 H   0  0  0  0  0  0
   -2.7725    0.7456   -0.7257 H   0  0  0  0  0  0
   -2.1956   -0.2884    2.8184 H   0  0  0  0  0  0
   -3.8446    2.7184    0.2316 H   0  0  0  0  0  0
    1.7496   -1.9473    0.6655 H   0  0  0  0  0  0
    1.7032    2.1171   -0.8031 H   0  0  0  0  0  0
    4.1998   -1.9510    0.5187 H   0  0  0  0  0  0
    4.1309    2.0927   -0.9285 H   0  0  0  0  0  0
   -6.6385    3.6526    3.7065 H   0  0  0  0  0  0
   -3.3089    2.5365    6.2004 H   0  0  0  0  0  0
   -4.4621    3.6158    8.0988 H   0  0  0  0  0  0
    5.9184   -1.5866   -2.0724 H   0  0  0  0  0  0
   -6.6825    4.6924    7.7069 H   0  0  0  0  0  0
  1 11  1  0  0  0
  1 25  1  0  0  0
  2 25  1  0  0  0
  3 25  1  0  0  0
  4 12  2  0  0  0
  5 10  1  0  0  0
  5 12  1  0  0  0
  5 27  1  0  0  0
  6 22  2  0  0  0
  6 26  1  0  0  0
  7  8  1  0  0  0
  7 13  2  0  0  0
  7 14  1  0  0  0
  8 22  1  0  0  0
  8 23  2  0  0  0
  9 15  1  0  0  0
  9 16  2  0  0  0
  9 17  1  0  0  0
 10 18  2  0  0  0
 10 19  1  0  0  0
 11 20  2  0  0  0
 11 21  1  0  0  0
 12 15  1  0  0  0
 13 16  1  0  0  0
 13 28  1  0  0  0
 14 17  2  0  0  0
 14 29  1  0  0  0
 15 30  1  0  0  0
 15 31  1  0  0  0
 16 32  1  0  0  0
 17 33  1  0  0  0
 18 20  1  0  0  0
 18 34  1  0  0  0
 19 21  2  0  0  0
 19 35  1  0  0  0
 20 36  1  0  0  0
 21 37  1  0  0  0
 22 38  1  0  0  0
 23 24  1  0  0  0
 23 39  1  0  0  0
 24 26  2  0  0  0
 24 40  1  0  0  0
 25 41  1  0  0  0
 26 42  1  0  0  0
M  END
> <chembl_id>
CHEMBL1992581

> <chembl_pref_name>
None

> <s_m_source_file>
sdf/inactives_sanitized.sdf

> <i_m_source_file_index>
21

> <i_lp_mmshare_version>
49012

> <i_m_ct_stereo_status>
1

> <i_f3d_flags>
0

> <s_epik_input>
RltDSF0oRilTYyhbY0hdW2NIXTEpW2NIXVtjSF1jMVtOSF1DKD1PKVtDSDJdYyhbY0hdW2NIXTIpW2NIXVtjSF1jMi1jM1tjSF1uW2NIXVtjSF1bY0hdMw==

> <s_epik_cmdline>
J2VwaWtfcHl0aG9uJywgJy1waHQnLCAnMC41JywgJy1waCcsICc3LjUnLCAnLW50JywgJy1tYScsICcyMDAnLCAnLWltYWUnLCAnPGluZmlsZS5tYWU+JywgJy1vbWFlJywgJzxvdXRmaWxlLm1hZT4n

> <r_lp_tautomer_probability>
1

> <r_epik_Ionization_Penalty>
  0.0018

> <r_epik_Ionization_Penalty_Charging>
  0.0000

> <r_epik_Ionization_Penalty_Neutral>
  0.0018

> <r_epik_State_Penalty>
 -0.0000

> <r_epik_Charging_Adjusted_Penalty>
0

> <i_epik_Tot_Q>
0

> <i_epik_Tot_abs_Q>
0

> <s_lp_Force_Field>
OPLS3e

> <r_lp_Energy>
38.865639

> <b_lp_Chiralities_Consistent>
1

> <s_lp_Variant>
sdf/inactives_sanitized.sdf:21-1

$$$$
sdf/inactives_sanitized.sdf:22
                    3D
 Schrodinger Suite 2020-1.
 18 19  0  0  1  0            999 V2000
   -0.8450   -1.5002   -0.0308 S   0  0  0  0  0  0
    2.1229   -1.0218    0.0450 O   0  0  0  0  0  0
   -4.7756   -0.4139   -0.0893 N   0  0  0  0  0  0
    2.0456    1.2126    0.2651 N   0  0  0  0  0  0
   -2.3835   -0.6568   -0.0284 C   0  0  0  0  0  0
   -2.2129    0.7546    0.0574 C   0  0  0  0  0  0
    0.0196    0.0253    0.0892 C   0  0  0  0  0  0
   -0.8395    1.1186    0.1206 C   0  0  0  0  0  0
    1.4656    0.0149    0.1284 C   0  0  0  0  0  0
   -3.6734   -1.2010   -0.0993 C   0  0  0  0  0  0
   -3.3684    1.5581    0.0669 C   0  0  0  0  0  0
   -4.6117    0.9277   -0.0082 C   0  0  0  0  0  0
    3.0519    1.2852    0.3024 H   0  0  0  0  0  0
    1.4837    2.0481    0.3330 H   0  0  0  0  0  0
   -0.5112    2.1453    0.1868 H   0  0  0  0  0  0
   -3.8342   -2.2671   -0.1651 H   0  0  0  0  0  0
   -3.3008    2.6339    0.1304 H   0  0  0  0  0  0
   -5.5184    1.5148   -0.0045 H   0  0  0  0  0  0
  1  5  1  0  0  0
  1  7  1  0  0  0
  2  9  2  0  0  0
  3 10  2  0  0  0
  3 12  1  0  0  0
  4  9  1  0  0  0
  4 13  1  0  0  0
  4 14  1  0  0  0
  5  6  2  0  0  0
  5 10  1  0  0  0
  6  8  1  0  0  0
  6 11  1  0  0  0
  7  8  2  0  0  0
  7  9  1  0  0  0
  8 15  1  0  0  0
 10 16  1  0  0  0
 11 12  2  0  0  0
 11 17  1  0  0  0
 12 18  1  0  0  0
M  END
> <chembl_id>
CHEMBL1971534

> <chembl_pref_name>
None

> <s_m_source_file>
sdf/inactives_sanitized.sdf

> <i_m_source_file_index>
22

> <i_lp_mmshare_version>
49012

> <i_m_ct_stereo_status>
1

> <i_f3d_flags>
0

> <s_epik_input>
Tz1DKFtOSDJdKWMoczEpW2NIXWMoYzEyKVtjSF1bY0hdbltjSF0y

> <s_epik_cmdline>
J2VwaWtfcHl0aG9uJywgJy1waHQnLCAnMC41JywgJy1waCcsICc3LjUnLCAnLW50JywgJy1tYScsICcyMDAnLCAnLWltYWUnLCAnPGluZmlsZS5tYWU+JywgJy1vbWFlJywgJzxvdXRmaWxlLm1hZT4n

> <r_lp_tautomer_probability>
1

> <r_epik_Ionization_Penalty>
  0.0001

> <r_epik_Ionization_Penalty_Charging>
  0.0000

> <r_epik_Ionization_Penalty_Neutral>
  0.0001

> <r_epik_State_Penalty>
 -0.0000

> <r_epik_Charging_Adjusted_Penalty>
0

> <i_epik_Tot_Q>
0

> <i_epik_Tot_abs_Q>
0

> <s_lp_Force_Field>
OPLS3e

> <r_lp_Energy>
8.835395

> <b_lp_Chiralities_Consistent>
1

> <s_lp_Variant>
sdf/inactives_sanitized.sdf:22-1

$$$$
sdf/inactives_sanitized.sdf:23
                    3D
 Schrodinger Suite 2020-1.
 50 53  0  0  1  0            999 V2000
   -6.4831    5.7125    0.0876 F   0  0  0  0  0  0
   -4.2065    7.7700    3.7113 F   0  0  0  0  0  0
    1.4098    0.8397    2.2741 O   0  0  0  0  0  0
   -4.9396    1.3302   -0.6365 N   0  0  0  0  0  0
   -6.3941    2.7659    0.3694 N   0  0  0  0  0  0
   -1.9791    1.3316   -0.1582 N   0  0  0  0  0  0
   -6.9395   -0.3770   -1.5370 N   0  0  0  0  0  0
    0.0610    2.6127   -0.2101 N   0  0  0  0  0  0
    0.0692    0.2149   -0.2151 N   0  0  0  0  0  0
   -4.1975    2.3571   -0.0730 C   0  0  0  0  0  0
   -5.1576    3.1887    0.5430 C   0  0  0  0  0  0
   -6.2847    1.6226   -0.3441 C   0  0  0  0  0  0
   -2.7014    2.4859   -0.1291 C   0  0  0  0  0  0
   -4.9215    4.4162    1.3630 C   0  0  0  0  0  0
   -7.2695    0.7293   -0.8180 C   0  0  0  0  0  0
   -4.6097    0.2171   -1.3758 C   0  0  0  0  0  0
   -5.5977    5.6197    1.1077 C   0  0  0  0  0  0
   -4.0064    4.3620    2.4223 C   0  0  0  0  0  0
   -2.0721    3.7370   -0.1469 C   0  0  0  0  0  0
   -5.6353   -0.6186   -1.8072 C   0  0  0  0  0  0
   -0.6251    1.4356   -0.1934 C   0  0  0  0  0  0
   -5.3548    6.7441    1.8984 C   0  0  0  0  0  0
   -3.7649    5.4874    3.2097 C   0  0  0  0  0  0
   -4.4395    6.6787    2.9480 C   0  0  0  0  0  0
   -0.6774    3.7512   -0.1864 C   0  0  0  0  0  0
   -8.7573    0.9188   -0.5783 C   0  0  0  0  0  0
    1.5203    0.1229   -0.0230 C   0  0  0  0  0  0
    1.9982   -0.1406    1.4335 C   0  0  0  0  0  0
    3.5193    0.0396    1.5852 C   0  0  0  0  0  0
    1.4495   -1.4661    2.0028 C   0  0  0  0  0  0
    1.6958    0.6775    3.1758 H   0  0  0  0  0  0
   -0.4706   -0.6311   -0.1035 H   0  0  0  0  0  0
   -3.5718    0.0341   -1.6042 H   0  0  0  0  0  0
   -3.4781    3.4444    2.6389 H   0  0  0  0  0  0
   -2.6318    4.6604   -0.1395 H   0  0  0  0  0  0
   -5.4186   -1.5028   -2.3887 H   0  0  0  0  0  0
   -5.8757    7.6687    1.6966 H   0  0  0  0  0  0
   -3.0559    5.4346    4.0228 H   0  0  0  0  0  0
   -0.1324    4.6835   -0.2026 H   0  0  0  0  0  0
   -8.9646    0.9344    0.4920 H   0  0  0  0  0  0
   -9.3598    0.1262   -1.0259 H   0  0  0  0  0  0
   -9.0856    1.8690   -1.0006 H   0  0  0  0  0  0
    1.8955   -0.6632   -0.6787 H   0  0  0  0  0  0
    1.9964    1.0290   -0.3998 H   0  0  0  0  0  0
    4.0592   -0.6932    0.9847 H   0  0  0  0  0  0
    3.8408   -0.0885    2.6200 H   0  0  0  0  0  0
    3.8432    1.0302    1.2617 H   0  0  0  0  0  0
    1.8163   -2.3152    1.4251 H   0  0  0  0  0  0
    0.3591   -1.5068    1.9818 H   0  0  0  0  0  0
    1.7614   -1.6223    3.0368 H   0  0  0  0  0  0
  1 17  1  0  0  0
  2 24  1  0  0  0
  3 28  1  0  0  0
  3 31  1  0  0  0
  4 10  1  0  0  0
  4 12  1  0  0  0
  4 16  1  0  0  0
  5 11  1  0  0  0
  5 12  2  0  0  0
  6 13  2  0  0  0
  6 21  1  0  0  0
  7 15  2  0  0  0
  7 20  1  0  0  0
  8 21  2  0  0  0
  8 25  1  0  0  0
  9 21  1  0  0  0
  9 27  1  0  0  0
  9 32  1  0  0  0
 10 11  2  0  0  0
 10 13  1  0  0  0
 11 14  1  0  0  0
 12 15  1  0  0  0
 13 19  1  0  0  0
 14 17  2  0  0  0
 14 18  1  0  0  0
 15 26  1  0  0  0
 16 20  2  0  0  0
 16 33  1  0  0  0
 17 22  1  0  0  0
 18 23  2  0  0  0
 18 34  1  0  0  0
 19 25  2  0  0  0
 19 35  1  0  0  0
 20 36  1  0  0  0
 22 24  2  0  0  0
 22 37  1  0  0  0
 23 24  1  0  0  0
 23 38  1  0  0  0
 25 39  1  0  0  0
 26 40  1  0  0  0
 26 41  1  0  0  0
 26 42  1  0  0  0
 27 28  1  0  0  0
 27 43  1  0  0  0
 27 44  1  0  0  0
 28 29  1  0  0  0
 28 30  1  0  0  0
 29 45  1  0  0  0
 29 46  1  0  0  0
 29 47  1  0  0  0
 30 48  1  0  0  0
 30 49  1  0  0  0
 30 50  1  0  0  0
M  END
> <chembl_id>
CHEMBL1996500

> <chembl_pref_name>
None

> <s_m_source_file>
sdf/inactives_sanitized.sdf

> <i_m_source_file_index>
23

> <i_lp_mmshare_version>
49012

> <i_m_ct_stereo_status>
1

> <i_f3d_flags>
0

> <s_epik_input>
W2NIXTFbY0hdbmMoW0NIM10pYyhuMTIpbmMoLWMzYyhGKVtjSF1jKEYpW2NIXVtjSF0zKWMyLWM0bmMobltjSF1bY0hdNClbTkhdW0NIMl1DKFtPSF0pKFtDSDNdKVtDSDNd

> <s_epik_cmdline>
J2VwaWtfcHl0aG9uJywgJy1waHQnLCAnMC41JywgJy1waCcsICc3LjUnLCAnLW50JywgJy1tYScsICcyMDAnLCAnLWltYWUnLCAnPGluZmlsZS5tYWU+JywgJy1vbWFlJywgJzxvdXRmaWxlLm1hZT4n

> <r_lp_tautomer_probability>
1

> <r_epik_Ionization_Penalty>
  0.0003

> <r_epik_Ionization_Penalty_Charging>
  0.0000

> <r_epik_Ionization_Penalty_Neutral>
  0.0003

> <r_epik_State_Penalty>
 -0.0000

> <r_epik_Charging_Adjusted_Penalty>
1.00628398551816e-05

> <i_epik_Tot_Q>
0

> <i_epik_Tot_abs_Q>
0

> <s_lp_Force_Field>
OPLS3e

> <r_lp_Energy>
43.818136

> <b_lp_Chiralities_Consistent>
1

> <s_lp_Variant>
sdf/inactives_sanitized.sdf:23-1

$$$$
sdf/inactives_sanitized.sdf:24
                    3D
 Schrodinger Suite 2020-1.
 20 22  0  0  1  0            999 V2000
   -3.4898    0.2675    2.7712 Br  0  0  0  0  0  0
    1.5234    2.0500   -0.6497 N   0  0  0  0  0  0
    2.5764    1.9895   -1.4809 N   0  0  0  0  0  0
    0.9042    0.8403   -0.4830 C   0  0  0  0  0  0
   -0.2072    0.1725    0.2050 C   0  0  0  0  0  0
    1.6153   -0.0268   -1.2578 C   0  0  0  0  0  0
   -0.1357   -1.1689   -0.1968 C   0  0  0  0  0  0
    1.0260   -1.4064   -1.1580 C   0  0  0  0  0  0
   -1.1966    0.6100    1.0842 C   0  0  0  0  0  0
    2.6326    0.7266   -1.8509 C   0  0  0  0  0  0
   -1.0743   -2.0786    0.2952 C   0  0  0  0  0  0
   -2.1300   -0.3077    1.5699 C   0  0  0  0  0  0
   -2.0686   -1.6473    1.1765 C   0  0  0  0  0  0
    1.2373    2.9106   -0.2055 H   0  0  0  0  0  0
    0.6833   -1.7791   -2.1236 H   0  0  0  0  0  0
    1.7379   -2.1311   -0.7619 H   0  0  0  0  0  0
   -1.2487    1.6441    1.3914 H   0  0  0  0  0  0
    3.3878    0.3602   -2.5305 H   0  0  0  0  0  0
   -1.0418   -3.1176    0.0017 H   0  0  0  0  0  0
   -2.7925   -2.3542    1.5546 H   0  0  0  0  0  0
  1 12  1  0  0  0
  2  3  1  0  0  0
  2  4  1  0  0  0
  2 14  1  0  0  0
  3 10  2  0  0  0
  4  5  1  0  0  0
  4  6  2  0  0  0
  5  7  2  0  0  0
  5  9  1  0  0  0
  6  8  1  0  0  0
  6 10  1  0  0  0
  7  8  1  0  0  0
  7 11  1  0  0  0
  8 15  1  0  0  0
  8 16  1  0  0  0
  9 12  2  0  0  0
  9 17  1  0  0  0
 10 18  1  0  0  0
 11 13  2  0  0  0
 11 19  1  0  0  0
 12 13  1  0  0  0
 13 20  1  0  0  0
M  END
> <chembl_id>
CHEMBL1995172

> <chembl_pref_name>
None

> <s_m_source_file>
sdf/inactives_sanitized.sdf

> <i_m_source_file_index>
24

> <i_lp_mmshare_version>
49012

> <i_m_ct_stereo_status>
1

> <i_f3d_flags>
0

> <s_epik_input>
QnJjKFtjSF0xKVtjSF1bY0hdYyhjMWMyMylbQ0gyXWMzW2NIXW5bbkhdMg==

> <s_epik_cmdline>
J2VwaWtfcHl0aG9uJywgJy1waHQnLCAnMC41JywgJy1waCcsICc3LjUnLCAnLW50JywgJy1tYScsICcyMDAnLCAnLWltYWUnLCAnPGluZmlsZS5tYWU+JywgJy1vbWFlJywgJzxvdXRmaWxlLm1hZT4n

> <r_lp_tautomer_probability>
1

> <r_epik_Ionization_Penalty>
  0.0000

> <r_epik_Ionization_Penalty_Charging>
  0.0000

> <r_epik_Ionization_Penalty_Neutral>
  0.0000

> <r_epik_State_Penalty>
 -0.0000

> <r_epik_Charging_Adjusted_Penalty>
0

> <i_epik_Tot_Q>
0

> <i_epik_Tot_abs_Q>
0

> <s_lp_Force_Field>
OPLS3e

> <r_lp_Energy>
8.47166

> <b_lp_Chiralities_Consistent>
1

> <s_lp_Variant>
sdf/inactives_sanitized.sdf:24-1

$$$$
sdf/inactives_sanitized.sdf:25
                    3D
 Schrodinger Suite 2020-1.
 39 41  0  0  1  0            999 V2000
   -3.2509    6.0153   -0.0832 F   0  0  0  0  0  0
   -3.3457    5.4697    2.0130 F   0  0  0  0  0  0
   -5.1515    5.9785    0.9426 F   0  0  0  0  0  0
    6.2759   -4.1521   -2.3855 F   0  0  0  0  0  0
    5.7156   -6.1186   -1.6681 F   0  0  0  0  0  0
    4.1256   -4.5409   -1.7524 O   0  0  0  0  0  0
   -0.1755    2.5770    0.3956 O   0  0  0  0  0  0
    0.2572    0.4021   -0.1981 N   0  0  0  0  0  0
    4.4681   -0.0782    0.0941 N   0  0  0  0  0  0
   -2.9475    3.2033    0.3340 N   0  0  0  0  0  0
   -1.8363    1.1004   -0.1489 N   0  0  0  0  0  0
    2.2685   -0.9508   -0.5159 C   0  0  0  0  0  0
    3.6891   -1.0777   -0.4001 C   0  0  0  0  0  0
    1.6624    0.2802   -0.0947 C   0  0  0  0  0  0
   -4.1109    3.9003    0.4466 C   0  0  0  0  0  0
   -3.9685    5.3700    0.8375 C   0  0  0  0  0  0
    4.3259   -2.2751   -0.8087 C   0  0  0  0  0  0
    1.5425   -2.0536   -1.0471 C   0  0  0  0  0  0
    3.5813   -3.3446   -1.3251 C   0  0  0  0  0  0
   -2.9980    1.8839   -0.0117 C   0  0  0  0  0  0
    2.4987    1.2854    0.4178 C   0  0  0  0  0  0
   -0.5489    1.4557    0.0486 C   0  0  0  0  0  0
    2.2000   -3.2156   -1.4395 C   0  0  0  0  0  0
    3.8691    1.0673    0.4894 C   0  0  0  0  0  0
   -5.3584    3.3071    0.2178 C   0  0  0  0  0  0
   -4.2141    1.2361   -0.2536 C   0  0  0  0  0  0
   -5.4027    1.9583   -0.1360 C   0  0  0  0  0  0
    5.5054   -4.8118   -1.5195 C   0  0  0  0  0  0
   -0.2036   -0.4447   -0.4965 H   0  0  0  0  0  0
   -2.0047    0.1443   -0.4243 H   0  0  0  0  0  0
    5.4002   -2.3365   -0.7164 H   0  0  0  0  0  0
    0.4693   -1.9964   -1.1531 H   0  0  0  0  0  0
    2.1262    2.2329    0.7704 H   0  0  0  0  0  0
    1.6223   -4.0354   -1.8413 H   0  0  0  0  0  0
    4.5216    1.8337    0.8812 H   0  0  0  0  0  0
   -6.2756    3.8703    0.3091 H   0  0  0  0  0  0
   -4.2460    0.1912   -0.5282 H   0  0  0  0  0  0
   -6.3516    1.4755   -0.3183 H   0  0  0  0  0  0
    5.8202   -4.5733   -0.5024 H   0  0  0  0  0  0
  1 16  1  0  0  0
  2 16  1  0  0  0
  3 16  1  0  0  0
  4 28  1  0  0  0
  5 28  1  0  0  0
  6 19  1  0  0  0
  6 28  1  0  0  0
  7 22  2  0  0  0
  8 14  1  0  0  0
  8 22  1  0  0  0
  8 29  1  0  0  0
  9 13  2  0  0  0
  9 24  1  0  0  0
 10 15  2  0  0  0
 10 20  1  0  0  0
 11 20  1  0  0  0
 11 22  1  0  0  0
 11 30  1  0  0  0
 12 13  1  0  0  0
 12 14  2  0  0  0
 12 18  1  0  0  0
 13 17  1  0  0  0
 14 21  1  0  0  0
 15 16  1  0  0  0
 15 25  1  0  0  0
 17 19  2  0  0  0
 17 31  1  0  0  0
 18 23  2  0  0  0
 18 32  1  0  0  0
 19 23  1  0  0  0
 20 26  2  0  0  0
 21 24  2  0  0  0
 21 33  1  0  0  0
 23 34  1  0  0  0
 24 35  1  0  0  0
 25 27  2  0  0  0
 25 36  1  0  0  0
 26 27  1  0  0  0
 26 37  1  0  0  0
 27 38  1  0  0  0
 28 39  1  0  0  0
M  END
> <chembl_id>
CHEMBL1981215

> <chembl_pref_name>
None

> <s_m_source_file>
sdf/inactives_sanitized.sdf

> <i_m_source_file_index>
25

> <i_lp_mmshare_version>
49012

> <i_m_ct_stereo_status>
1

> <i_f3d_flags>
0

> <s_epik_input>
RkMoRikoRiljMW5jKFtjSF1bY0hdW2NIXTEpW05IXUMoPU8pW05IXWMyW2NIXVtjSF1uYyhjMjMpW2NIXWMoT1tDSF0oRilGKVtjSF1bY0hdMw==

> <s_epik_cmdline>
J2VwaWtfcHl0aG9uJywgJy1waHQnLCAnMC41JywgJy1waCcsICc3LjUnLCAnLW50JywgJy1tYScsICcyMDAnLCAnLWltYWUnLCAnPGluZmlsZS5tYWU+JywgJy1vbWFlJywgJzxvdXRmaWxlLm1hZT4n

> <r_lp_tautomer_probability>
1

> <r_epik_Ionization_Penalty>
  0.0038

> <r_epik_Ionization_Penalty_Charging>
  0.0000

> <r_epik_Ionization_Penalty_Neutral>
  0.0038

> <r_epik_State_Penalty>
 -0.0000

> <r_epik_Charging_Adjusted_Penalty>
0

> <i_epik_Tot_Q>
0

> <i_epik_Tot_abs_Q>
0

> <s_lp_Force_Field>
OPLS3e

> <r_lp_Energy>
49.517951

> <b_lp_Chiralities_Consistent>
1

> <s_lp_Variant>
sdf/inactives_sanitized.sdf:25-1

$$$$
sdf/inactives_sanitized.sdf:26
                    3D
 Schrodinger Suite 2020-1.
 35 37  0  0  1  0            999 V2000
    6.3734   -0.5754   -0.9591 O   0  0  0  0  0  0
   -0.7347   -1.1979    0.0436 N   0  0  0  0  0  0
   -3.5269    0.9179    0.2517 N   0  0  0  0  0  0
   -3.0687   -1.9032    0.1003 N   0  0  0  0  0  0
   -0.0621    0.0075    0.0781 C   0  0  0  0  0  0
   -0.9955    1.0512    0.1530 C   0  0  0  0  0  0
   -2.2849    0.4144    0.1813 C   0  0  0  0  0  0
   -2.0897   -0.9902    0.1072 C   0  0  0  0  0  0
    1.4285    0.0416    0.0285 C   0  0  0  0  0  0
   -0.7504    2.5497    0.1796 C   0  0  0  0  0  0
    2.1497    0.8457    0.9130 C   0  0  0  0  0  0
    2.1125   -0.7415   -0.9042 C   0  0  0  0  0  0
    4.2329    0.1010   -0.0821 C   0  0  0  0  0  0
   -4.5446    0.0131    0.2456 C   0  0  0  0  0  0
   -4.3169   -1.3644    0.1712 C   0  0  0  0  0  0
    3.5408    0.8778    0.8585 C   0  0  0  0  0  0
    3.5029   -0.7117   -0.9598 C   0  0  0  0  0  0
    5.7298    0.1158   -0.1683 C   0  0  0  0  0  0
   -1.1848    3.2311   -1.1256 C   0  0  0  0  0  0
    6.5006    1.0510    0.7661 C   0  0  0  0  0  0
   -0.2528   -2.0834   -0.0145 H   0  0  0  0  0  0
   -1.2851    3.0018    1.0158 H   0  0  0  0  0  0
    0.3000    2.7816    0.3471 H   0  0  0  0  0  0
    1.6369    1.4429    1.6527 H   0  0  0  0  0  0
    1.5691   -1.3703   -1.5947 H   0  0  0  0  0  0
   -5.5481    0.4084    0.3007 H   0  0  0  0  0  0
   -5.1435   -2.0597    0.1675 H   0  0  0  0  0  0
    4.0614    1.5131    1.5599 H   0  0  0  0  0  0
    4.0025   -1.3263   -1.6957 H   0  0  0  0  0  0
   -1.0012    4.3050   -1.0842 H   0  0  0  0  0  0
   -2.2485    3.0854   -1.3174 H   0  0  0  0  0  0
   -0.6367    2.8324   -1.9802 H   0  0  0  0  0  0
    6.1858    2.0830    0.6100 H   0  0  0  0  0  0
    7.5749    0.9856    0.5906 H   0  0  0  0  0  0
    6.3012    0.7952    1.8068 H   0  0  0  0  0  0
  1 18  2  0  0  0
  2  5  1  0  0  0
  2  8  1  0  0  0
  2 21  1  0  0  0
  3  7  2  0  0  0
  3 14  1  0  0  0
  4  8  2  0  0  0
  4 15  1  0  0  0
  5  6  2  0  0  0
  5  9  1  0  0  0
  6  7  1  0  0  0
  6 10  1  0  0  0
  7  8  1  0  0  0
  9 11  2  0  0  0
  9 12  1  0  0  0
 10 19  1  0  0  0
 10 22  1  0  0  0
 10 23  1  0  0  0
 11 16  1  0  0  0
 11 24  1  0  0  0
 12 17  2  0  0  0
 12 25  1  0  0  0
 13 16  2  0  0  0
 13 17  1  0  0  0
 13 18  1  0  0  0
 14 15  2  0  0  0
 14 26  1  0  0  0
 15 27  1  0  0  0
 16 28  1  0  0  0
 17 29  1  0  0  0
 18 20  1  0  0  0
 19 30  1  0  0  0
 19 31  1  0  0  0
 19 32  1  0  0  0
 20 33  1  0  0  0
 20 34  1  0  0  0
 20 35  1  0  0  0
M  END
> <chembl_id>
CHEMBL1994555

> <chembl_pref_name>
None

> <s_m_source_file>
sdf/inactives_sanitized.sdf

> <i_m_source_file_index>
26

> <i_lp_mmshare_version>
49012

> <i_m_ct_stereo_status>
1

> <i_f3d_flags>
0

> <s_epik_input>
Tz1DKFtDSDNdKWMoW2NIXVtjSF0xKVtjSF1bY0hdYzEtYyhjMltDSDJdW0NIM10pW25IXWMoYzIzKW5bY0hdW2NIXW4z

> <s_epik_cmdline>
J2VwaWtfcHl0aG9uJywgJy1waHQnLCAnMC41JywgJy1waCcsICc3LjUnLCAnLW50JywgJy1tYScsICcyMDAnLCAnLWltYWUnLCAnPGluZmlsZS5tYWU+JywgJy1vbWFlJywgJzxvdXRmaWxlLm1hZT4n

> <r_lp_tautomer_probability>
1

> <r_epik_Ionization_Penalty>
  0.0000

> <r_epik_Ionization_Penalty_Charging>
  0.0000

> <r_epik_Ionization_Penalty_Neutral>
  0.0000

> <r_epik_State_Penalty>
 -0.0000

> <r_epik_Charging_Adjusted_Penalty>
0

> <i_epik_Tot_Q>
0

> <i_epik_Tot_abs_Q>
0

> <s_lp_Force_Field>
OPLS3e

> <r_lp_Energy>
27.15541

> <b_lp_Chiralities_Consistent>
1

> <s_lp_Variant>
sdf/inactives_sanitized.sdf:26-1

$$$$
sdf/inactives_sanitized.sdf:27
                    3D
 Schrodinger Suite 2020-1.
 41 43  0  0  1  0            999 V2000
   -2.8736    2.8900   -0.0835 O   0  0  0  0  0  0
    2.0711    1.2768    0.0149 O   0  0  0  0  0  0
    2.2676   -1.0021    0.1579 O   0  0  0  0  0  0
   -8.1785   -1.9677   -0.8352 O   0  5  0  0  0  0
   -7.7995   -3.3852    0.7534 O   0  0  0  0  0  0
   -3.5663   -5.3078   -1.1783 O   0  0  0  0  0  0
   -2.0304   -0.6246    0.0161 N   0  0  0  0  0  0
   -0.6212    1.1142    0.0209 N   0  0  0  0  0  0
   -4.2092    1.0807   -0.1060 N   0  5  0  0  0  0
   -7.4273   -2.5265   -0.0413 N   0  3  0  0  0  0
   -5.2429   -4.4218    0.1059 N   0  0  0  0  0  0
   -3.3281   -1.2186    0.0071 C   0  0  0  0  0  0
   -1.8799    0.7561   -0.0076 C   0  0  0  0  0  0
   -0.7358   -1.1282    0.0199 C   0  0  0  0  0  0
   -4.3844   -0.2882   -0.0683 C   0  0  0  0  0  0
    0.1008    0.0030    0.0409 C   0  0  0  0  0  0
   -3.0258    1.6689   -0.0674 C   0  0  0  0  0  0
   -3.6240   -2.5845    0.0774 C   0  0  0  0  0  0
   -4.9488   -3.0453    0.0399 C   0  0  0  0  0  0
   -6.0051   -2.1153   -0.0280 C   0  0  0  0  0  0
   -5.7026   -0.7503   -0.0897 C   0  0  0  0  0  0
    1.5737    0.0135    0.0780 C   0  0  0  0  0  0
   -0.4203   -2.6152   -0.0009 C   0  0  0  0  0  0
   -4.5651   -5.4368   -0.4696 C   0  0  0  0  0  0
    3.4727    1.5116    0.0381 C   0  0  0  0  0  0
   -5.1247   -6.8342   -0.2219 C   0  0  0  0  0  0
    3.7354    3.0194   -0.0170 C   0  0  0  0  0  0
   -6.1135   -4.6516    0.5632 H   0  0  0  0  0  0
   -2.8346   -3.3071    0.1751 H   0  0  0  0  0  0
   -6.5161   -0.0391   -0.1417 H   0  0  0  0  0  0
    0.6405   -2.8338   -0.0982 H   0  0  0  0  0  0
   -0.8967   -3.1145   -0.8447 H   0  0  0  0  0  0
   -0.7483   -3.1097    0.9132 H   0  0  0  0  0  0
    3.9065    1.0918    0.9471 H   0  0  0  0  0  0
    3.9471    1.0190   -0.8122 H   0  0  0  0  0  0
   -6.0489   -6.8024    0.3567 H   0  0  0  0  0  0
   -4.3998   -7.4367    0.3257 H   0  0  0  0  0  0
   -5.3344   -7.3284   -1.1708 H   0  0  0  0  0  0
    4.8054    3.2267    0.0006 H   0  0  0  0  0  0
    3.2837    3.5290    0.8347 H   0  0  0  0  0  0
    3.3258    3.4580   -0.9274 H   0  0  0  0  0  0
  1 17  2  0  0  0
  2 22  1  0  0  0
  2 25  1  0  0  0
  3 22  2  0  0  0
  4 10  1  0  0  0
  5 10  2  0  0  0
  6 24  2  0  0  0
  7 12  1  0  0  0
  7 13  1  0  0  0
  7 14  1  0  0  0
  8 13  2  0  0  0
  8 16  1  0  0  0
  9 15  1  0  0  0
  9 17  1  0  0  0
 10 20  1  0  0  0
 11 19  1  0  0  0
 11 24  1  0  0  0
 11 28  1  0  0  0
 12 15  2  0  0  0
 12 18  1  0  0  0
 13 17  1  0  0  0
 14 16  2  0  0  0
 14 23  1  0  0  0
 15 21  1  0  0  0
 16 22  1  0  0  0
 18 19  2  0  0  0
 18 29  1  0  0  0
 19 20  1  0  0  0
 20 21  2  0  0  0
 21 30  1  0  0  0
 23 31  1  0  0  0
 23 32  1  0  0  0
 23 33  1  0  0  0
 24 26  1  0  0  0
 25 27  1  0  0  0
 25 34  1  0  0  0
 25 35  1  0  0  0
 26 36  1  0  0  0
 26 37  1  0  0  0
 26 38  1  0  0  0
 27 39  1  0  0  0
 27 40  1  0  0  0
 27 41  1  0  0  0
M  CHG  3   4  -1   9  -1  10   1
M  END
> <chembl_id>
CHEMBL1997611

> <chembl_pref_name>
None

> <s_m_source_file>
sdf/inactives_sanitized.sdf

> <i_m_source_file_index>
27

> <i_lp_mmshare_version>
49012

> <i_m_ct_stereo_status>
1

> <i_f3d_flags>
0

> <s_epik_input>
W0NIM11bQ0gyXU9DKD1PKWMoYzFbQ0gzXSluYzJjKD1PKVtuSF1jKGMzbjEyKVtjSF1jKFtOK10oW08tXSk9TyljKFtjSF0zKVtOSF1DKD1PKVtDSDNd

> <s_epik_cmdline>
J2VwaWtfcHl0aG9uJywgJy1waHQnLCAnMC41JywgJy1waCcsICc3LjUnLCAnLW50JywgJy1tYScsICcyMDAnLCAnLWltYWUnLCAnPGluZmlsZS5tYWU+JywgJy1vbWFlJywgJzxvdXRmaWxlLm1hZT4n

> <r_lp_tautomer_probability>
1

> <r_epik_Ionization_Penalty>
  0.0023

> <r_epik_Ionization_Penalty_Charging>
  0.0002

> <r_epik_Ionization_Penalty_Neutral>
  0.0021

> <r_epik_State_Penalty>
 -0.0000

> <r_epik_Charging_Adjusted_Penalty>
0.000172239777671684

> <i_epik_Tot_Q>
-1

> <i_epik_Tot_abs_Q>
3

> <s_epik_Chemistry_Notes>
This compound has an ester and may undergo hydrolysis at high or low pH.

> <s_lp_Force_Field>
OPLS3e

> <r_lp_Energy>
45.466693

> <b_lp_Chiralities_Consistent>
1

> <s_lp_Variant>
sdf/inactives_sanitized.sdf:27-1

$$$$
sdf/inactives_sanitized.sdf:28
                    3D
 Schrodinger Suite 2020-1.
 67 71  0  0  1  0            999 V2000
   -2.1063    0.3637   -0.3059 C   0  0  0  0  0  0
   -0.8753   -0.2909   -0.3178 C   0  0  0  0  0  0
    0.0953    0.6872   -0.4592 C   0  0  0  0  0  0
   -0.5024    1.9066   -0.5258 O   0  0  0  0  0  0
   -1.8487    1.7227   -0.4364 C   0  0  0  0  0  0
   -2.7220    2.9305   -0.5092 C   0  0  0  0  0  0
   -2.1968    4.2108   -0.3204 C   0  0  0  0  0  0
   -3.0088    5.3397   -0.3914 C   0  0  0  0  0  0
   -4.0844    2.7745   -0.7770 C   0  0  0  0  0  0
   -4.9437    3.9044   -0.8628 C   0  0  0  0  0  0
   -4.3903    5.2075   -0.6633 C   0  0  0  0  0  0
   -5.1587    6.3313   -0.7291 N   0  0  0  0  0  0
   -6.4749    6.1520   -0.9943 C   0  0  0  0  0  0
   -7.1065    4.9742   -1.2026 N   0  0  0  0  0  0
   -6.3447    3.8516   -1.1441 C   0  0  0  0  0  0
   -6.9738    2.6070   -1.3429 N   0  0  0  0  0  0
   -8.2586    2.2400   -1.7806 C   0  0  0  0  0  0
   -8.7280    0.9726   -1.4311 C   0  0  0  0  0  0
   -9.9814    0.5356   -1.8571 C   0  0  0  0  0  0
  -10.7930    1.3575   -2.6569 C   0  0  0  0  0  0
  -10.3164    2.6262   -3.0119 C   0  0  0  0  0  0
   -9.0614    3.0607   -2.5821 C   0  0  0  0  0  0
  -12.0394    0.9870   -3.1284 O   0  0  0  0  0  0
  -12.5505   -0.3108   -2.8289 C   0  0  0  0  0  0
  -13.9040   -0.5097   -3.4979 C   0  0  0  0  0  0
  -11.2691    3.6773   -4.0015 Cl  0  0  0  0  0  0
  -14.2434   -1.7594   -4.0283 C   0  0  0  0  0  0
  -15.4830   -1.9532   -4.6393 C   0  0  0  0  0  0
  -16.3937   -0.8998   -4.7196 C   0  0  0  0  0  0
  -16.0660    0.3468   -4.1866 C   0  0  0  0  0  0
  -14.8266    0.5411   -3.5756 C   0  0  0  0  0  0
  -15.8012   -3.1624   -5.1535 F   0  0  0  0  0  0
    1.6011    0.6639   -0.5575 C   0  0  0  0  0  0
    2.1727    1.1171    0.7936 N   0  3  0  0  0  0
    3.7074    1.1427    0.8290 C   0  0  0  0  0  0
    4.1720    1.6072    2.2155 C   0  0  0  0  0  0
    6.0599    1.6591    2.2624 S   0  0  0  0  0  0
    6.4491    2.2375    4.0128 C   0  0  0  0  0  0
    6.5547    0.2863    2.1164 O   0  0  0  0  0  0
    6.5071    2.6988    1.3298 O   0  0  0  0  0  0
   -3.0771   -0.1009   -0.2152 H   0  0  0  0  0  0
   -0.7114   -1.3557   -0.2391 H   0  0  0  0  0  0
   -1.1447    4.3419   -0.1123 H   0  0  0  0  0  0
   -2.5854    6.3228   -0.2407 H   0  0  0  0  0  0
   -4.4952    1.7871   -0.9299 H   0  0  0  0  0  0
   -7.0843    7.0426   -1.0437 H   0  0  0  0  0  0
   -6.3700    1.8183   -1.1645 H   0  0  0  0  0  0
   -8.1231    0.3153   -0.8225 H   0  0  0  0  0  0
  -10.3034   -0.4500   -1.5577 H   0  0  0  0  0  0
   -8.7182    4.0332   -2.8998 H   0  0  0  0  0  0
  -11.8527   -1.0723   -3.1834 H   0  0  0  0  0  0
  -12.6730   -0.4361   -1.7516 H   0  0  0  0  0  0
  -13.5468   -2.5834   -3.9713 H   0  0  0  0  0  0
  -17.3529   -1.0498   -5.1930 H   0  0  0  0  0  0
  -16.7722    1.1620   -4.2464 H   0  0  0  0  0  0
  -14.5860    1.5110   -3.1641 H   0  0  0  0  0  0
    2.0066   -0.3366   -0.7152 H   0  0  0  0  0  0
    2.0043    1.3456   -1.3080 H   0  0  0  0  0  0
    1.8270    2.0444    0.9965 H   0  0  0  0  0  0
    4.0273    0.1249    0.5985 H   0  0  0  0  0  0
    4.0106    1.8262    0.0335 H   0  0  0  0  0  0
    3.8135    2.6094    2.4528 H   0  0  0  0  0  0
    3.8451    0.9293    3.0046 H   0  0  0  0  0  0
    7.5309    2.2907    4.1329 H   0  0  0  0  0  0
    6.0299    1.5252    4.7229 H   0  0  0  0  0  0
    6.0086    3.2219    4.1675 H   0  0  0  0  0  0
    1.8397    0.4923    1.5143 H   0  0  0  0  0  0
  1  2  1  0  0  0
  1  5  2  0  0  0
  1 41  1  0  0  0
  2  3  2  0  0  0
  2 42  1  0  0  0
  3  4  1  0  0  0
  3 33  1  0  0  0
  4  5  1  0  0  0
  5  6  1  0  0  0
  6  9  2  0  0  0
  6  7  1  0  0  0
  7  8  2  0  0  0
  7 43  1  0  0  0
  8 11  1  0  0  0
  8 44  1  0  0  0
  9 10  1  0  0  0
  9 45  1  0  0  0
 10 11  2  0  0  0
 10 15  1  0  0  0
 11 12  1  0  0  0
 12 13  2  0  0  0
 13 14  1  0  0  0
 13 46  1  0  0  0
 14 15  2  0  0  0
 15 16  1  0  0  0
 16 17  1  0  0  0
 16 47  1  0  0  0
 17 18  2  0  0  0
 17 22  1  0  0  0
 18 19  1  0  0  0
 18 48  1  0  0  0
 19 20  2  0  0  0
 19 49  1  0  0  0
 20 21  1  0  0  0
 20 23  1  0  0  0
 21 22  2  0  0  0
 21 26  1  0  0  0
 22 50  1  0  0  0
 23 24  1  0  0  0
 24 25  1  0  0  0
 24 51  1  0  0  0
 24 52  1  0  0  0
 25 27  2  0  0  0
 25 31  1  0  0  0
 27 28  1  0  0  0
 27 53  1  0  0  0
 28 29  2  0  0  0
 28 32  1  0  0  0
 29 30  1  0  0  0
 29 54  1  0  0  0
 30 31  2  0  0  0
 30 55  1  0  0  0
 31 56  1  0  0  0
 33 34  1  0  0  0
 33 57  1  0  0  0
 33 58  1  0  0  0
 34 35  1  0  0  0
 34 59  1  0  0  0
 34 67  1  0  0  0
 35 36  1  0  0  0
 35 60  1  0  0  0
 35 61  1  0  0  0
 36 37  1  0  0  0
 36 62  1  0  0  0
 36 63  1  0  0  0
 37 39  2  0  0  0
 37 40  2  0  0  0
 37 38  1  0  0  0
 38 64  1  0  0  0
 38 65  1  0  0  0
 38 66  1  0  0  0
M  CHG  1  34   1
M  END
> <chembl_id>
CHEMBL554

> <chembl_pref_name>
LAPATINIB

> <s_m_source_file>
sdf/inactives_sanitized.sdf

> <i_m_source_file_index>
28

> <i_lp_mmshare_version>
49012

> <i_m_ct_stereo_status>
1

> <i_f3d_flags>
0

> <s_epik_input>
W0NIM11TKD1PKSg9TylbQ0gyXVtDSDJdW05IXVtDSDJdYzFbY0hdW2NIXWMobzEpLWMoW2NIXTIpW2NIXVtjSF1jKGMyMyluW2NIXW5jM1tOSF1jNFtjSF1bY0hdYyhjKENsKVtjSF00KU9bQ0gyXWM1W2NIXWMoRilbY0hdW2NIXVtjSF01

> <s_epik_cmdline>
J2VwaWtfcHl0aG9uJywgJy1waHQnLCAnMC41JywgJy1waCcsICc3LjUnLCAnLW50JywgJy1tYScsICcyMDAnLCAnLWltYWUnLCAnPGluZmlsZS5tYWU+JywgJy1vbWFlJywgJzxvdXRmaWxlLm1hZT4n

> <r_lp_tautomer_probability>
0.999978000241998

> <r_epik_Ionization_Penalty>
  0.2687

> <r_epik_Ionization_Penalty_Charging>
  0.2685

> <r_epik_Ionization_Penalty_Neutral>
  0.0002

> <r_epik_State_Penalty>
  0.2605

> <r_epik_Charging_Adjusted_Penalty>
0.529056143349341

> <i_epik_Tot_Q>
1

> <i_epik_Tot_abs_Q>
1

> <s_lp_Force_Field>
OPLS3e

> <r_lp_Energy>
41.269917

> <b_lp_Chiralities_Consistent>
1

> <s_lp_Variant>
sdf/inactives_sanitized.sdf:28-1

$$$$
sdf/inactives_sanitized.sdf:28
                    3D
 Schrodinger Suite 2020-1.
 66 70  0  0  1  0            999 V2000
   -2.3337   -0.7086    0.5784 C   0  0  0  0  0  0
   -1.2075   -1.5093    0.7692 C   0  0  0  0  0  0
   -0.1046   -0.6743    0.6892 C   0  0  0  0  0  0
   -0.5246    0.6020    0.4813 O   0  0  0  0  0  0
   -1.8830    0.5939    0.4033 C   0  0  0  0  0  0
   -2.5654    1.8936    0.1430 C   0  0  0  0  0  0
   -1.9120    3.1047    0.3818 C   0  0  0  0  0  0
   -2.5395    4.3222    0.1325 C   0  0  0  0  0  0
   -3.8700    1.8966   -0.3559 C   0  0  0  0  0  0
   -4.5401    3.1208   -0.6301 C   0  0  0  0  0  0
   -3.8583    4.3519   -0.3764 C   0  0  0  0  0  0
   -4.4443    5.5594   -0.6143 N   0  0  0  0  0  0
   -5.7065    5.5351   -1.1046 C   0  0  0  0  0  0
   -6.4457    4.4378   -1.3861 N   0  0  0  0  0  0
   -5.8647    3.2319   -1.1559 C   0  0  0  0  0  0
   -6.6144    2.0700   -1.4247 N   0  0  0  0  0  0
   -7.8472    1.8578   -2.0665 C   0  0  0  0  0  0
   -8.3613    2.7215   -3.0408 C   0  0  0  0  0  0
   -9.5803    2.4459   -3.6589 C   0  0  0  0  0  0
  -10.3117    1.2943   -3.3227 C   0  0  0  0  0  0
   -9.7863    0.4267   -2.3565 C   0  0  0  0  0  0
   -8.5646    0.7051   -1.7415 C   0  0  0  0  0  0
  -11.5253    0.9564   -3.8941 O   0  0  0  0  0  0
  -12.0961    1.8029   -4.8903 C   0  0  0  0  0  0
  -13.4383    1.2439   -5.3409 C   0  0  0  0  0  0
  -10.6388   -1.0094   -1.9068 Cl  0  0  0  0  0  0
  -14.3449    0.7280   -4.4070 C   0  0  0  0  0  0
  -15.5779    0.2256   -4.8249 C   0  0  0  0  0  0
  -15.9144    0.2399   -6.1785 C   0  0  0  0  0  0
  -15.0187    0.7580   -7.1139 C   0  0  0  0  0  0
  -13.7854    1.2598   -6.6965 C   0  0  0  0  0  0
  -16.4473   -0.2736   -3.9176 F   0  0  0  0  0  0
    1.3869   -0.8914    0.7977 C   0  0  0  0  0  0
    2.0480   -0.5105   -0.4426 N   0  0  1  0  0  0
    3.4904   -0.6623   -0.3332 C   0  0  0  0  0  0
    4.1567   -0.2291   -1.6470 C   0  0  0  0  0  0
    6.0336   -0.4452   -1.5501 S   0  0  0  0  0  0
    6.2830   -2.3144   -1.5063 C   0  0  0  0  0  0
    6.6056    0.0494   -2.8065 O   0  0  0  0  0  0
    6.4994    0.1058   -0.2732 O   0  0  0  0  0  0
   -3.3616   -1.0400    0.5698 H   0  0  0  0  0  0
   -1.1966   -2.5761    0.9369 H   0  0  0  0  0  0
   -0.9028    3.1103    0.7682 H   0  0  0  0  0  0
   -2.0190    5.2498    0.3245 H   0  0  0  0  0  0
   -4.3763    0.9617   -0.5476 H   0  0  0  0  0  0
   -6.1717    6.4922   -1.2902 H   0  0  0  0  0  0
   -6.1666    1.2194   -1.1168 H   0  0  0  0  0  0
   -7.8209    3.6043   -3.3462 H   0  0  0  0  0  0
   -9.9379    3.1395   -4.4044 H   0  0  0  0  0  0
   -8.1782    0.0186   -1.0013 H   0  0  0  0  0  0
  -12.2570    2.8088   -4.4990 H   0  0  0  0  0  0
  -11.4181    1.8746   -5.7431 H   0  0  0  0  0  0
  -14.0956    0.7155   -3.3557 H   0  0  0  0  0  0
  -16.8688   -0.1485   -6.5022 H   0  0  0  0  0  0
  -15.2805    0.7714   -8.1616 H   0  0  0  0  0  0
  -13.1008    1.6599   -7.4305 H   0  0  0  0  0  0
    1.7850   -0.2720    1.6031 H   0  0  0  0  0  0
    1.6211   -1.9281    1.0445 H   0  0  0  0  0  0
    1.7100   -1.0966   -1.1929 H   0  0  0  0  0  0
    3.8892   -0.0705    0.4925 H   0  0  0  0  0  0
    3.7545   -1.6969   -0.1116 H   0  0  0  0  0  0
    3.8029   -0.8186   -2.4933 H   0  0  0  0  0  0
    3.9610    0.8219   -1.8620 H   0  0  0  0  0  0
    7.3521   -2.5245   -1.4957 H   0  0  0  0  0  0
    5.8271   -2.7529   -2.3934 H   0  0  0  0  0  0
    5.8177   -2.7184   -0.6081 H   0  0  0  0  0  0
  1  2  1  0  0  0
  1  5  2  0  0  0
  1 41  1  0  0  0
  2  3  2  0  0  0
  2 42  1  0  0  0
  3  4  1  0  0  0
  3 33  1  0  0  0
  4  5  1  0  0  0
  5  6  1  0  0  0
  6  9  2  0  0  0
  6  7  1  0  0  0
  7  8  2  0  0  0
  7 43  1  0  0  0
  8 11  1  0  0  0
  8 44  1  0  0  0
  9 10  1  0  0  0
  9 45  1  0  0  0
 10 11  2  0  0  0
 10 15  1  0  0  0
 11 12  1  0  0  0
 12 13  2  0  0  0
 13 14  1  0  0  0
 13 46  1  0  0  0
 14 15  2  0  0  0
 15 16  1  0  0  0
 16 17  1  0  0  0
 16 47  1  0  0  0
 17 18  2  0  0  0
 17 22  1  0  0  0
 18 19  1  0  0  0
 18 48  1  0  0  0
 19 20  2  0  0  0
 19 49  1  0  0  0
 20 21  1  0  0  0
 20 23  1  0  0  0
 21 22  2  0  0  0
 21 26  1  0  0  0
 22 50  1  0  0  0
 23 24  1  0  0  0
 24 25  1  0  0  0
 24 51  1  0  0  0
 24 52  1  0  0  0
 25 27  2  0  0  0
 25 31  1  0  0  0
 27 28  1  0  0  0
 27 53  1  0  0  0
 28 29  2  0  0  0
 28 32  1  0  0  0
 29 30  1  0  0  0
 29 54  1  0  0  0
 30 31  2  0  0  0
 30 55  1  0  0  0
 31 56  1  0  0  0
 33 34  1  0  0  0
 33 57  1  0  0  0
 33 58  1  0  0  0
 34 35  1  0  0  0
 34 59  1  0  0  0
 35 36  1  0  0  0
 35 60  1  0  0  0
 35 61  1  0  0  0
 36 37  1  0  0  0
 36 62  1  0  0  0
 36 63  1  0  0  0
 37 39  2  0  0  0
 37 40  2  0  0  0
 37 38  1  0  0  0
 38 64  1  0  0  0
 38 65  1  0  0  0
 38 66  1  0  0  0
M  END
> <chembl_id>
CHEMBL554

> <chembl_pref_name>
LAPATINIB

> <s_m_source_file>
sdf/inactives_sanitized.sdf

> <i_m_source_file_index>
28

> <i_lp_mmshare_version>
49012

> <i_m_ct_stereo_status>
1

> <i_f3d_flags>
0

> <s_epik_input>
W0NIM11TKD1PKSg9TylbQ0gyXVtDSDJdW05IXVtDSDJdYzFbY0hdW2NIXWMobzEpLWMoW2NIXTIpW2NIXVtjSF1jKGMyMyluW2NIXW5jM1tOSF1jNFtjSF1bY0hdYyhjKENsKVtjSF00KU9bQ0gyXWM1W2NIXWMoRilbY0hdW2NIXVtjSF01

> <s_epik_cmdline>
J2VwaWtfcHl0aG9uJywgJy1waHQnLCAnMC41JywgJy1waCcsICc3LjUnLCAnLW50JywgJy1tYScsICcyMDAnLCAnLWltYWUnLCAnPGluZmlsZS5tYWU+JywgJy1vbWFlJywgJzxvdXRmaWxlLm1hZT4n

> <r_lp_tautomer_probability>
0.999978000241998

> <r_epik_Ionization_Penalty>
  0.5983

> <r_epik_Ionization_Penalty_Charging>
  0.0000

> <r_epik_Ionization_Penalty_Neutral>
  0.5983

> <r_epik_State_Penalty>
  0.6123

> <r_epik_Charging_Adjusted_Penalty>
0.612259615754879

> <i_epik_Tot_Q>
0

> <i_epik_Tot_abs_Q>
0

> <s_lp_Force_Field>
OPLS3e

> <r_lp_Energy>
43.402471

> <b_lp_Chiralities_Consistent>
1

> <s_lp_Variant>
sdf/inactives_sanitized.sdf:28-2

$$$$
sdf/inactives_sanitized.sdf:29
                    3D
 Schrodinger Suite 2020-1.
 39 41  0  0  1  0            999 V2000
    4.8257   -9.3381   -0.0677 F   0  0  0  0  0  0
    2.5282   -3.5776    1.4402 N   0  0  0  0  0  0
    0.0066    0.0887   -0.0393 N   0  0  0  0  0  0
    2.8091   -4.0669    0.1989 C   0  0  0  0  0  0
    3.3434   -5.4622    0.1350 C   0  0  0  0  0  0
    1.8169   -1.4878    0.4483 C   0  0  0  0  0  0
    2.6188   -3.2872   -0.9516 C   0  0  0  0  0  0
    2.0440   -2.3146    1.5512 C   0  0  0  0  0  0
    2.1215   -1.9896   -0.8214 C   0  0  0  0  0  0
    3.0485   -6.2871   -0.9602 C   0  0  0  0  0  0
    4.1489   -5.9779    1.1624 C   0  0  0  0  0  0
    1.2915   -0.0730    0.6323 C   0  0  0  0  0  0
    4.3428   -8.0768   -0.0010 C   0  0  0  0  0  0
   -0.6486    1.3309   -0.0894 C   0  0  0  0  0  0
    3.5444   -7.5865   -1.0297 C   0  0  0  0  0  0
    4.6467   -7.2765    1.0959 C   0  0  0  0  0  0
   -1.9389    1.3579   -0.6230 C   0  0  0  0  0  0
   -0.0637    2.5217    0.3635 C   0  0  0  0  0  0
   -2.0572    3.7389   -0.2479 C   0  0  0  0  0  0
   -2.6415    2.5571   -0.7047 C   0  0  0  0  0  0
   -0.7664    3.7212    0.2822 C   0  0  0  0  0  0
   -2.8190    5.0479   -0.3501 C   0  0  0  0  0  0
   -0.5621   -0.7385   -0.1483 H   0  0  0  0  0  0
    2.8587   -3.6692   -1.9329 H   0  0  0  0  0  0
    1.8372   -1.9721    2.5546 H   0  0  0  0  0  0
    1.9749   -1.3789   -1.7005 H   0  0  0  0  0  0
    2.4234   -5.9293   -1.7650 H   0  0  0  0  0  0
    4.3998   -5.3700    2.0196 H   0  0  0  0  0  0
    2.0118    0.6259    0.2053 H   0  0  0  0  0  0
    1.1922    0.1712    1.6911 H   0  0  0  0  0  0
    3.3085   -8.2116   -1.8783 H   0  0  0  0  0  0
    5.2673   -7.6602    1.8922 H   0  0  0  0  0  0
   -2.4043    0.4500   -0.9795 H   0  0  0  0  0  0
    0.9321    2.5357    0.7801 H   0  0  0  0  0  0
   -3.6381    2.5647   -1.1216 H   0  0  0  0  0  0
   -0.3061    4.6337    0.6326 H   0  0  0  0  0  0
   -2.1386    5.8978   -0.4199 H   0  0  0  0  0  0
   -3.4674    5.1831    0.5159 H   0  0  0  0  0  0
   -3.4358    5.0663   -1.2495 H   0  0  0  0  0  0
  1 13  1  0  0  0
  2  4  2  0  0  0
  2  8  1  0  0  0
  3 12  1  0  0  0
  3 14  1  0  0  0
  3 23  1  0  0  0
  4  5  1  0  0  0
  4  7  1  0  0  0
  5 10  2  0  0  0
  5 11  1  0  0  0
  6  8  2  0  0  0
  6  9  1  0  0  0
  6 12  1  0  0  0
  7  9  2  0  0  0
  7 24  1  0  0  0
  8 25  1  0  0  0
  9 26  1  0  0  0
 10 15  1  0  0  0
 10 27  1  0  0  0
 11 16  2  0  0  0
 11 28  1  0  0  0
 12 29  1  0  0  0
 12 30  1  0  0  0
 13 15  2  0  0  0
 13 16  1  0  0  0
 14 17  2  0  0  0
 14 18  1  0  0  0
 15 31  1  0  0  0
 16 32  1  0  0  0
 17 20  1  0  0  0
 17 33  1  0  0  0
 18 21  2  0  0  0
 18 34  1  0  0  0
 19 20  2  0  0  0
 19 21  1  0  0  0
 19 22  1  0  0  0
 20 35  1  0  0  0
 21 36  1  0  0  0
 22 37  1  0  0  0
 22 38  1  0  0  0
 22 39  1  0  0  0
M  END
> <chembl_id>
CHEMBL1986899

> <chembl_pref_name>
None

> <s_m_source_file>
sdf/inactives_sanitized.sdf

> <i_m_source_file_index>
29

> <i_lp_mmshare_version>
49012

> <i_m_ct_stereo_status>
1

> <i_f3d_flags>
0

> <s_epik_input>
W2NIXTFbY0hdYyhGKVtjSF1bY0hdYzEtYzJuW2NIXWMoW2NIXVtjSF0yKVtDSDJdW05IXWMzW2NIXVtjSF1jKFtDSDNdKVtjSF1bY0hdMw==

> <s_epik_cmdline>
J2VwaWtfcHl0aG9uJywgJy1waHQnLCAnMC41JywgJy1waCcsICc3LjUnLCAnLW50JywgJy1tYScsICcyMDAnLCAnLWltYWUnLCAnPGluZmlsZS5tYWU+JywgJy1vbWFlJywgJzxvdXRmaWxlLm1hZT4n

> <r_lp_tautomer_probability>
1

> <r_epik_Ionization_Penalty>
  0.0021

> <r_epik_Ionization_Penalty_Charging>
  0.0000

> <r_epik_Ionization_Penalty_Neutral>
  0.0021

> <r_epik_State_Penalty>
 -0.0000

> <r_epik_Charging_Adjusted_Penalty>
0

> <i_epik_Tot_Q>
0

> <i_epik_Tot_abs_Q>
0

> <s_lp_Force_Field>
OPLS3e

> <r_lp_Energy>
37.654494

> <b_lp_Chiralities_Consistent>
1

> <s_lp_Variant>
sdf/inactives_sanitized.sdf:29-1

$$$$
sdf/inactives_sanitized.sdf:30
                    3D
 Schrodinger Suite 2020-1.
 29 31  0  0  1  0            999 V2000
   -0.9681    3.5547    0.3361 O   0  0  0  0  0  0
    0.8433    2.8554   -0.7510 O   0  5  0  0  0  0
    0.0418    0.1587   -0.0764 N   0  0  0  0  0  0
   -0.6544   -1.0008   -0.0494 N   0  0  0  0  0  0
   -5.4897   -1.6691    0.0716 N   0  0  0  0  0  0
   -0.7717    1.2919   -0.0980 C   0  0  0  0  0  0
   -2.1097    0.8028   -0.0470 C   0  0  0  0  0  0
   -1.9626   -0.6152   -0.0271 C   0  0  0  0  0  0
    1.4519    0.0491   -0.0200 C   0  0  0  0  0  0
   -0.2467    2.6650   -0.1664 C   0  0  0  0  0  0
   -3.3938    1.3719   -0.0262 C   0  0  0  0  0  0
   -3.0912   -1.4484    0.0126 C   0  0  0  0  0  0
   -4.3558   -0.8590    0.0327 C   0  0  0  0  0  0
   -4.5024    0.5273    0.0140 C   0  0  0  0  0  0
    2.1321   -0.7099   -0.9800 C   0  0  0  0  0  0
    2.1596    0.6823    1.0079 C   0  0  0  0  0  0
    3.5182   -0.8250   -0.9154 C   0  0  0  0  0  0
    3.5455    0.5648    1.0685 C   0  0  0  0  0  0
    4.2178   -0.1874    0.1072 C   0  0  0  0  0  0
   -6.4046   -1.2423    0.0733 H   0  0  0  0  0  0
   -5.3821   -2.6730    0.0784 H   0  0  0  0  0  0
   -3.5258    2.4439   -0.0427 H   0  0  0  0  0  0
   -2.9818   -2.5234    0.0273 H   0  0  0  0  0  0
   -5.4900    0.9658    0.0293 H   0  0  0  0  0  0
    1.5917   -1.2049   -1.7742 H   0  0  0  0  0  0
    1.6410    1.2642    1.7564 H   0  0  0  0  0  0
    4.0491   -1.4059   -1.6551 H   0  0  0  0  0  0
    4.0965    1.0545    1.8577 H   0  0  0  0  0  0
    5.2930   -0.2767    0.1556 H   0  0  0  0  0  0
  1 10  2  0  0  0
  2 10  1  0  0  0
  3  4  1  0  0  0
  3  6  1  0  0  0
  3  9  1  0  0  0
  4  8  2  0  0  0
  5 13  1  0  0  0
  5 20  1  0  0  0
  5 21  1  0  0  0
  6  7  2  0  0  0
  6 10  1  0  0  0
  7  8  1  0  0  0
  7 11  1  0  0  0
  8 12  1  0  0  0
  9 15  2  0  0  0
  9 16  1  0  0  0
 11 14  2  0  0  0
 11 22  1  0  0  0
 12 13  2  0  0  0
 12 23  1  0  0  0
 13 14  1  0  0  0
 14 24  1  0  0  0
 15 17  1  0  0  0
 15 25  1  0  0  0
 16 18  2  0  0  0
 16 26  1  0  0  0
 17 19  2  0  0  0
 17 27  1  0  0  0
 18 19  1  0  0  0
 18 28  1  0  0  0
 19 29  1  0  0  0
M  CHG  1   2  -1
M  END
> <chembl_id>
CHEMBL1974574

> <chembl_pref_name>
None

> <s_m_source_file>
sdf/inactives_sanitized.sdf

> <i_m_source_file_index>
30

> <i_lp_mmshare_version>
49012

> <i_m_ct_stereo_status>
1

> <i_f3d_flags>
0

> <s_epik_input>
W2NIXTFbY0hdW2NIXVtjSF1bY0hdYzEtbihjMkMoPU8pW09IXSluYyhjMjMpW2NIXWMoW05IMl0pW2NIXVtjSF0z

> <s_epik_cmdline>
J2VwaWtfcHl0aG9uJywgJy1waHQnLCAnMC41JywgJy1waCcsICc3LjUnLCAnLW50JywgJy1tYScsICcyMDAnLCAnLWltYWUnLCAnPGluZmlsZS5tYWU+JywgJy1vbWFlJywgJzxvdXRmaWxlLm1hZT4n

> <r_lp_tautomer_probability>
1

> <r_epik_Ionization_Penalty>
  0.0000

> <r_epik_Ionization_Penalty_Charging>
  0.0000

> <r_epik_Ionization_Penalty_Neutral>
  0.0000

> <r_epik_State_Penalty>
 -0.0000

> <r_epik_Charging_Adjusted_Penalty>
1.3480455617556e-06

> <i_epik_Tot_Q>
-1

> <i_epik_Tot_abs_Q>
1

> <s_lp_Force_Field>
OPLS3e

> <r_lp_Energy>
25.562536

> <b_lp_Chiralities_Consistent>
1

> <s_lp_Variant>
sdf/inactives_sanitized.sdf:30-1

$$$$
sdf/inactives_sanitized.sdf:31
                    3D
 Schrodinger Suite 2020-1.
 81 85  0  0  1  0            999 V2000
    5.6034   -0.6321    0.2085 O   0  0  0  0  0  0
    0.1161    3.2340   -0.8514 O   0  0  0  0  0  0
   -4.8809    1.7500    0.7839 O   0  0  0  0  0  0
    9.3199    4.8507    0.8915 O   0  0  0  0  0  0
    8.5739    8.7782   -0.5760 O   0  0  0  0  0  0
    3.5133   -1.2824    0.9149 N   0  0  0  0  0  0
    4.5289    1.3422   -1.4432 N   0  0  0  0  0  0
   -2.8236    2.3220   -0.0345 N   0  0  0  0  0  0
    6.2428    2.8004   -2.0705 N   0  0  0  0  0  0
    8.9532    6.0358   -1.0194 N   0  0  0  0  0  0
    0.0087   -0.1041    0.0530 C   0  0  0  0  0  0
    1.4957   -0.1932    0.0908 C   0  0  0  0  0  0
   -0.7171    1.1147    0.0852 C   0  0  0  0  0  0
    3.7161    0.5492   -0.6468 C   0  0  0  0  0  0
   -2.1279    1.0929   -0.0261 C   0  0  0  0  0  0
    4.3759   -0.4853    0.1845 C   0  0  0  0  0  0
    2.3670    0.6649   -0.7022 C   0  0  0  0  0  0
    2.1500   -1.1155    0.8312 C   0  0  0  0  0  0
   -0.7034   -1.3089   -0.0345 C   0  0  0  0  0  0
   -2.7958   -0.1340   -0.1551 C   0  0  0  0  0  0
    5.5446    2.2328   -1.0552 C   0  0  0  0  0  0
   -0.0048    2.4574    0.3231 C   0  0  0  0  0  0
   -2.0872   -1.3267   -0.1431 C   0  0  0  0  0  0
   -4.0999    2.5883    0.3280 C   0  0  0  0  0  0
   -4.5297    4.0346    0.1941 C   0  0  0  0  0  0
    7.5424    4.0682   -0.4557 C   0  0  0  0  0  0
    8.6705    5.0287   -0.1429 C   0  0  0  0  0  0
    5.8038    2.5497    0.2855 C   0  0  0  0  0  0
    4.0884   -2.3280    1.7724 C   0  0  0  0  0  0
    7.2270    3.6837   -1.7675 C   0  0  0  0  0  0
    6.8158    3.4639    0.5803 C   0  0  0  0  0  0
   -5.3681    6.7250   -0.0296 C   0  0  0  0  0  0
   -5.6358    4.5015    0.9144 C   0  0  0  0  0  0
   -3.8512    4.9280   -0.6474 C   0  0  0  0  0  0
   -5.7944    8.2086   -0.1741 C   0  0  0  0  0  0
   -6.0482    5.8266    0.8062 C   0  0  0  0  0  0
   -4.2658    6.2519   -0.7545 C   0  0  0  0  0  0
   10.1237    6.9006   -0.7701 C   0  0  0  0  0  0
    7.8802    6.7501   -1.7421 C   0  0  0  0  0  0
   -4.6270    9.1314    0.2562 C   0  0  0  0  0  0
   -7.0255    8.5817    0.6952 C   0  0  0  0  0  0
   -6.1614    8.5057   -1.6492 C   0  0  0  0  0  0
    9.6399    8.0967    0.0864 C   0  0  0  0  0  0
    7.4504    7.9421   -0.8543 C   0  0  0  0  0  0
    0.6261    4.0211   -0.6458 H   0  0  0  0  0  0
    4.3236    1.3992   -2.4305 H   0  0  0  0  0  0
   -2.2571    3.1179   -0.2893 H   0  0  0  0  0  0
    1.9276    1.3955   -1.3655 H   0  0  0  0  0  0
    1.6305   -1.8279    1.4577 H   0  0  0  0  0  0
   -0.1795   -2.2536   -0.0581 H   0  0  0  0  0  0
   -3.8666   -0.1876   -0.2774 H   0  0  0  0  0  0
    0.9767    2.3250    0.7750 H   0  0  0  0  0  0
   -0.5665    3.0372    1.0565 H   0  0  0  0  0  0
   -2.6102   -2.2671   -0.2367 H   0  0  0  0  0  0
    5.2376    2.1042    1.0899 H   0  0  0  0  0  0
    3.7578   -2.1826    2.8011 H   0  0  0  0  0  0
    5.1786   -2.3567    1.7845 H   0  0  0  0  0  0
    3.7377   -3.3072    1.4456 H   0  0  0  0  0  0
    7.7746    4.0702   -2.6150 H   0  0  0  0  0  0
    7.0219    3.7029    1.6142 H   0  0  0  0  0  0
   -6.1867    3.8427    1.5710 H   0  0  0  0  0  0
   -2.9990    4.6113   -1.2315 H   0  0  0  0  0  0
   -6.9048    6.1311    1.3870 H   0  0  0  0  0  0
   -3.7186    6.9107   -1.4122 H   0  0  0  0  0  0
   11.0025    6.3714   -0.3983 H   0  0  0  0  0  0
   10.4141    7.2610   -1.7578 H   0  0  0  0  0  0
    8.3709    7.1360   -2.6367 H   0  0  0  0  0  0
    7.0631    6.1500   -2.1373 H   0  0  0  0  0  0
   -4.9030   10.1850    0.1917 H   0  0  0  0  0  0
   -3.7445    8.9998   -0.3707 H   0  0  0  0  0  0
   -4.3257    8.9379    1.2868 H   0  0  0  0  0  0
   -6.8326    8.4293    1.7582 H   0  0  0  0  0  0
   -7.9046    7.9937    0.4269 H   0  0  0  0  0  0
   -7.3000    9.6306    0.5725 H   0  0  0  0  0  0
   -6.4830    9.5397   -1.7824 H   0  0  0  0  0  0
   -6.9758    7.8665   -1.9934 H   0  0  0  0  0  0
   -5.3188    8.3500   -2.3236 H   0  0  0  0  0  0
   10.4636    8.7904    0.2544 H   0  0  0  0  0  0
    9.3176    7.7672    1.0761 H   0  0  0  0  0  0
    6.9979    7.5941    0.0763 H   0  0  0  0  0  0
    6.6794    8.5231   -1.3603 H   0  0  0  0  0  0
  1 16  2  0  0  0
  2 22  1  0  0  0
  2 45  1  0  0  0
  3 24  2  0  0  0
  4 27  2  0  0  0
  5 43  1  0  0  0
  5 44  1  0  0  0
  6 16  1  0  0  0
  6 18  1  0  0  0
  6 29  1  0  0  0
  7 14  1  0  0  0
  7 21  1  0  0  0
  7 46  1  0  0  0
  8 15  1  0  0  0
  8 24  1  0  0  0
  8 47  1  0  0  0
  9 21  2  0  0  0
  9 30  1  0  0  0
 10 27  1  0  0  0
 10 38  1  0  0  0
 10 39  1  0  0  0
 11 12  1  0  0  0
 11 13  2  0  0  0
 11 19  1  0  0  0
 12 17  1  0  0  0
 12 18  2  0  0  0
 13 15  1  0  0  0
 13 22  1  0  0  0
 14 16  1  0  0  0
 14 17  2  0  0  0
 15 20  2  0  0  0
 17 48  1  0  0  0
 18 49  1  0  0  0
 19 23  2  0  0  0
 19 50  1  0  0  0
 20 23  1  0  0  0
 20 51  1  0  0  0
 21 28  1  0  0  0
 22 52  1  0  0  0
 22 53  1  0  0  0
 23 54  1  0  0  0
 24 25  1  0  0  0
 25 33  2  0  0  0
 25 34  1  0  0  0
 26 27  1  0  0  0
 26 30  2  0  0  0
 26 31  1  0  0  0
 28 31  2  0  0  0
 28 55  1  0  0  0
 29 56  1  0  0  0
 29 57  1  0  0  0
 29 58  1  0  0  0
 30 59  1  0  0  0
 31 60  1  0  0  0
 32 35  1  0  0  0
 32 36  2  0  0  0
 32 37  1  0  0  0
 33 36  1  0  0  0
 33 61  1  0  0  0
 34 37  2  0  0  0
 34 62  1  0  0  0
 35 40  1  0  0  0
 35 41  1  0  0  0
 35 42  1  0  0  0
 36 63  1  0  0  0
 37 64  1  0  0  0
 38 43  1  0  0  0
 38 65  1  0  0  0
 38 66  1  0  0  0
 39 44  1  0  0  0
 39 67  1  0  0  0
 39 68  1  0  0  0
 40 69  1  0  0  0
 40 70  1  0  0  0
 40 71  1  0  0  0
 41 72  1  0  0  0
 41 73  1  0  0  0
 41 74  1  0  0  0
 42 75  1  0  0  0
 42 76  1  0  0  0
 42 77  1  0  0  0
 43 78  1  0  0  0
 43 79  1  0  0  0
 44 80  1  0  0  0
 44 81  1  0  0  0
M  END
> <chembl_id>
CHEMBL2001584

> <chembl_pref_name>
None

> <s_m_source_file>
sdf/inactives_sanitized.sdf

> <i_m_source_file_index>
31

> <i_lp_mmshare_version>
49012

> <i_m_ct_stereo_status>
1

> <i_f3d_flags>
0

> <s_epik_input>
W0NIMl0xW0NIMl1PW0NIMl1bQ0gyXU4xQyg9TyljKFtjSF1bY0hdMilbY0hdbmMyW05IXWMoYyg9TyluM1tDSDNdKVtjSF1jKFtjSF0zKS1jNGMoW0NIMl1bT0hdKWMoW2NIXVtjSF1bY0hdNClbTkhdQyg9TyljNVtjSF1bY0hdYyhDKFtDSDNdKShbQ0gzXSlbQ0gzXSlbY0hdW2NIXTU=

> <s_epik_cmdline>
J2VwaWtfcHl0aG9uJywgJy1waHQnLCAnMC41JywgJy1waCcsICc3LjUnLCAnLW50JywgJy1tYScsICcyMDAnLCAnLWltYWUnLCAnPGluZmlsZS5tYWU+JywgJy1vbWFlJywgJzxvdXRmaWxlLm1hZT4n

> <r_lp_tautomer_probability>
1

> <r_epik_Ionization_Penalty>
  0.0002

> <r_epik_Ionization_Penalty_Charging>
  0.0000

> <r_epik_Ionization_Penalty_Neutral>
  0.0002

> <r_epik_State_Penalty>
 -0.0000

> <r_epik_Charging_Adjusted_Penalty>
4.72798607380757e-06

> <i_epik_Tot_Q>
0

> <i_epik_Tot_abs_Q>
0

> <s_lp_Force_Field>
OPLS3e

> <r_lp_Energy>
93.740985

> <b_lp_Chiralities_Consistent>
1

> <s_lp_Variant>
sdf/inactives_sanitized.sdf:31-1

$$$$
sdf/inactives_sanitized.sdf:32
                    3D
 Schrodinger Suite 2020-1.
 38 41  0  0  1  0            999 V2000
    4.4070    2.6149   -0.9661 Cl  0  0  0  0  0  0
   -1.8972    0.3353    2.1705 F   0  0  0  0  0  0
   -2.6803    0.9655   -2.5327 F   0  0  0  0  0  0
   -0.4704    2.0626   -0.9860 O   0  0  0  0  0  0
    6.0413   -3.7531    1.1022 N   0  0  0  0  0  0
    0.1159    0.1169    0.0840 N   0  0  0  0  0  0
    2.2003    1.2528   -0.3983 N   0  0  0  0  0  0
    5.0544   -5.3242    2.6493 N   0  0  0  0  0  0
    4.3565   -2.2409    0.8969 C   0  0  0  0  0  0
    3.9500   -3.2790    1.8204 C   0  0  0  0  0  0
    3.5900   -1.0420    0.4319 C   0  0  0  0  0  0
    5.0282   -4.2114    1.9091 C   0  0  0  0  0  0
    1.5217    0.1518    0.0328 C   0  0  0  0  0  0
    2.1894   -1.0008    0.4600 C   0  0  0  0  0  0
    5.6476   -2.5808    0.5108 C   0  0  0  0  0  0
   -2.2166    0.6592   -0.1930 C   0  0  0  0  0  0
    4.2771    0.0952   -0.0134 C   0  0  0  0  0  0
   -0.7675    1.0202   -0.3995 C   0  0  0  0  0  0
    3.5551    1.2178   -0.4197 C   0  0  0  0  0  0
    2.8145   -3.5574    2.6081 C   0  0  0  0  0  0
   -2.7087    0.3342    1.0852 C   0  0  0  0  0  0
   -3.1059    0.6622   -1.2823 C   0  0  0  0  0  0
    2.8148   -4.7133    3.3914 C   0  0  0  0  0  0
    3.9306   -5.5501    3.3780 C   0  0  0  0  0  0
   -4.0554    0.0136    1.2605 C   0  0  0  0  0  0
   -4.4506    0.3400   -1.0955 C   0  0  0  0  0  0
   -4.9257    0.0156    0.1729 C   0  0  0  0  0  0
    6.9448   -4.1741    0.9401 H   0  0  0  0  0  0
   -0.2727   -0.7115    0.5097 H   0  0  0  0  0  0
    1.6210   -1.8604    0.7792 H   0  0  0  0  0  0
    6.3280   -2.0819   -0.1641 H   0  0  0  0  0  0
    5.3568    0.1163   -0.0397 H   0  0  0  0  0  0
    1.9606   -2.8988    2.6262 H   0  0  0  0  0  0
    1.9597   -4.9562    4.0051 H   0  0  0  0  0  0
    3.9375   -6.4456    3.9821 H   0  0  0  0  0  0
   -4.4277   -0.2328    2.2442 H   0  0  0  0  0  0
   -5.1276    0.3421   -1.9374 H   0  0  0  0  0  0
   -5.9675   -0.2319    0.3129 H   0  0  0  0  0  0
  1 19  1  0  0  0
  2 21  1  0  0  0
  3 22  1  0  0  0
  4 18  2  0  0  0
  5 12  1  0  0  0
  5 15  1  0  0  0
  5 28  1  0  0  0
  6 13  1  0  0  0
  6 18  1  0  0  0
  6 29  1  0  0  0
  7 13  2  0  0  0
  7 19  1  0  0  0
  8 12  2  0  0  0
  8 24  1  0  0  0
  9 10  1  0  0  0
  9 11  1  0  0  0
  9 15  2  0  0  0
 10 12  1  0  0  0
 10 20  2  0  0  0
 11 14  2  0  0  0
 11 17  1  0  0  0
 13 14  1  0  0  0
 14 30  1  0  0  0
 15 31  1  0  0  0
 16 18  1  0  0  0
 16 21  2  0  0  0
 16 22  1  0  0  0
 17 19  2  0  0  0
 17 32  1  0  0  0
 20 23  1  0  0  0
 20 33  1  0  0  0
 21 25  1  0  0  0
 22 26  2  0  0  0
 23 24  2  0  0  0
 23 34  1  0  0  0
 24 35  1  0  0  0
 25 27  2  0  0  0
 25 36  1  0  0  0
 26 27  1  0  0  0
 26 37  1  0  0  0
 27 38  1  0  0  0
M  END
> <chembl_id>
CHEMBL1991410

> <chembl_pref_name>
None

> <s_m_source_file>
sdf/inactives_sanitized.sdf

> <i_m_source_file_index>
32

> <i_lp_mmshare_version>
49012

> <i_m_ct_stereo_status>
1

> <i_f3d_flags>
0

> <s_epik_input>
RmMxW2NIXVtjSF1bY0hdYyhGKWMxQyg9TylbTkhdYyhuYyhDbClbY0hdMilbY0hdYzItYzNbY0hdW25IXWMoYzM0KW5bY0hdW2NIXVtjSF00

> <s_epik_cmdline>
J2VwaWtfcHl0aG9uJywgJy1waHQnLCAnMC41JywgJy1waCcsICc3LjUnLCAnLW50JywgJy1tYScsICcyMDAnLCAnLWltYWUnLCAnPGluZmlsZS5tYWU+JywgJy1vbWFlJywgJzxvdXRmaWxlLm1hZT4n

> <r_lp_tautomer_probability>
1

> <r_epik_Ionization_Penalty>
  0.0016

> <r_epik_Ionization_Penalty_Charging>
  0.0000

> <r_epik_Ionization_Penalty_Neutral>
  0.0016

> <r_epik_State_Penalty>
 -0.0000

> <r_epik_Charging_Adjusted_Penalty>
0

> <i_epik_Tot_Q>
0

> <i_epik_Tot_abs_Q>
0

> <s_lp_Force_Field>
OPLS3e

> <r_lp_Energy>
38.003686

> <b_lp_Chiralities_Consistent>
1

> <s_lp_Variant>
sdf/inactives_sanitized.sdf:32-1

$$$$
sdf/inactives_sanitized.sdf:33
                    3D
 Schrodinger Suite 2020-1.
 44 46  0  0  1  0            999 V2000
   -5.0988    0.6178   -2.7234 Cl  0  0  0  0  0  0
   -6.6881    0.2848    0.0361 Cl  0  0  0  0  0  0
   -0.0432    0.2148    0.1180 O   0  0  0  0  0  0
    8.1902   -1.0131   -4.4301 O   0  0  0  0  0  0
    8.9930    1.0554   -4.3687 O   0  5  0  0  0  0
    6.1897   -0.7367   -1.3153 N   0  3  2  0  0  0
    7.5884    0.3697   -2.5701 C   0  0  2  0  0  0
    4.1504    0.0460    0.0355 C   0  0  0  0  0  0
    7.7100   -0.7424   -1.5142 C   0  0  0  0  0  0
    6.0746    0.1060   -2.5913 C   0  0  0  0  0  0
    5.6672   -0.1208   -0.0015 C   0  0  0  0  0  0
    3.5253    1.3070    0.0049 C   0  0  0  0  0  0
    1.3381    0.2244    0.0976 C   0  0  0  0  0  0
    8.3187    0.1129   -3.8991 C   0  0  0  0  0  0
    3.3625   -1.1058    0.1207 C   0  0  0  0  0  0
    2.1279    1.3838    0.0320 C   0  0  0  0  0  0
   -2.2421    1.1607    0.0322 C   0  0  0  0  0  0
    1.9733   -1.0155    0.1479 C   0  0  0  0  0  0
   -4.2954    0.7653   -1.1986 C   0  0  0  0  0  0
   -4.9908    0.6181    0.0094 C   0  0  0  0  0  0
   -2.9254    1.0353   -1.1813 C   0  0  0  0  0  0
   -0.7510    1.4487    0.0449 C   0  0  0  0  0  0
   -2.9393    1.0080    1.2337 C   0  0  0  0  0  0
   -4.3078    0.7396    1.2210 C   0  0  0  0  0  0
    4.3261    2.6026   -0.0462 C   0  0  0  0  0  0
    7.8731    1.3636   -2.2191 H   0  0  0  0  0  0
    8.2088   -0.4923   -0.5766 H   0  0  0  0  0  0
    7.9833   -1.7410   -1.8619 H   0  0  0  0  0  0
    5.6903   -0.5527   -3.3732 H   0  0  0  0  0  0
    5.4108    0.9534   -2.4245 H   0  0  0  0  0  0
    6.0004   -0.8273    0.7602 H   0  0  0  0  0  0
    6.2192    0.8101    0.1302 H   0  0  0  0  0  0
    3.8271   -2.0807    0.1556 H   0  0  0  0  0  0
    1.6636    2.3580    0.0045 H   0  0  0  0  0  0
    1.3831   -1.9187    0.2047 H   0  0  0  0  0  0
   -2.3920    1.1459   -2.1147 H   0  0  0  0  0  0
   -0.5092    2.0846    0.8989 H   0  0  0  0  0  0
   -0.4787    1.9999   -0.8576 H   0  0  0  0  0  0
   -2.4228    1.0960    2.1786 H   0  0  0  0  0  0
   -4.8378    0.6248    2.1553 H   0  0  0  0  0  0
    3.6859    3.4843   -0.0957 H   0  0  0  0  0  0
    4.9803    2.6205   -0.9171 H   0  0  0  0  0  0
    4.9552    2.6927    0.8398 H   0  0  0  0  0  0
    5.7985   -1.6586   -1.4495 H   0  0  0  0  0  0
  1 19  1  0  0  0
  2 20  1  0  0  0
  3 13  1  0  0  0
  3 22  1  0  0  0
  4 14  2  0  0  0
  5 14  1  0  0  0
  6  9  1  0  0  0
  6 10  1  0  0  0
  6 11  1  0  0  0
  6 44  1  0  0  0
  7  9  1  0  0  0
  7 10  1  0  0  0
  7 14  1  0  0  0
  7 26  1  0  0  0
  8 11  1  0  0  0
  8 12  2  0  0  0
  8 15  1  0  0  0
  9 27  1  0  0  0
  9 28  1  0  0  0
 10 29  1  0  0  0
 10 30  1  0  0  0
 11 31  1  0  0  0
 11 32  1  0  0  0
 12 16  1  0  0  0
 12 25  1  0  0  0
 13 16  2  0  0  0
 13 18  1  0  0  0
 15 18  2  0  0  0
 15 33  1  0  0  0
 16 34  1  0  0  0
 17 21  2  0  0  0
 17 22  1  0  0  0
 17 23  1  0  0  0
 18 35  1  0  0  0
 19 20  2  0  0  0
 19 21  1  0  0  0
 20 24  1  0  0  0
 21 36  1  0  0  0
 22 37  1  0  0  0
 22 38  1  0  0  0
 23 24  2  0  0  0
 23 39  1  0  0  0
 24 40  1  0  0  0
 25 41  1  0  0  0
 25 42  1  0  0  0
 25 43  1  0  0  0
M  CHG  2   5  -1   6   1
M  END
> <chembl_id>
CHEMBL1990223

> <chembl_pref_name>
None

> <s_m_source_file>
sdf/inactives_sanitized.sdf

> <i_m_source_file_index>
33

> <i_lp_mmshare_version>
49012

> <i_m_ct_stereo_status>
1

> <i_f3d_flags>
0

> <s_epik_input>
W2NIXTFbY0hdYyhDbCljKENsKVtjSF1jMVtDSDJdT2MoW2NIXVtjSF0yKVtjSF1jKFtDSDNdKWMyW0NIMl1OM1tDSDJdW0NIXShbQ0gyXTMpQyg9TylbT0hd

> <s_epik_cmdline>
J2VwaWtfcHl0aG9uJywgJy1waHQnLCAnMC41JywgJy1waCcsICc3LjUnLCAnLW50JywgJy1tYScsICcyMDAnLCAnLWltYWUnLCAnPGluZmlsZS5tYWU+JywgJy1vbWFlJywgJzxvdXRmaWxlLm1hZT4n

> <r_lp_tautomer_probability>
1

> <r_epik_Ionization_Penalty>
  0.0269

> <r_epik_Ionization_Penalty_Charging>
  0.0269

> <r_epik_Ionization_Penalty_Neutral>
  0.0000

> <r_epik_State_Penalty>
  0.0220

> <r_epik_Charging_Adjusted_Penalty>
0.048959869006878

> <i_epik_Tot_Q>
0

> <i_epik_Tot_abs_Q>
2

> <s_lp_Force_Field>
OPLS3e

> <r_lp_Energy>
31.816628

> <b_lp_Chiralities_Consistent>
1

> <s_lp_Variant>
sdf/inactives_sanitized.sdf:33-1

$$$$
sdf/inactives_sanitized.sdf:34
                    3D
 Schrodinger Suite 2020-1.
 31 34  0  0  1  0            999 V2000
   -8.4887   -5.3028   -0.0000 Br  0  0  0  0  0  0
   -2.9809   -3.1464   -0.0000 N   0  0  0  0  0  0
   -0.0015   -0.0140   -0.0000 N   0  0  0  0  0  0
   -6.4913   -3.3024   -0.0000 N   0  0  0  0  0  0
   -4.3327   -5.1821   -0.0000 N   0  0  0  0  0  0
   -2.1285   -0.8212   -0.0000 C   0  0  0  0  0  0
   -3.2301   -1.7863   -0.0000 C   0  0  0  0  0  0
   -2.1782    0.6215   -0.0000 C   0  0  0  0  0  0
   -5.2127   -2.9029   -0.0000 C   0  0  0  0  0  0
   -4.1609   -3.8552   -0.0000 C   0  0  0  0  0  0
   -0.8256    1.0964    0.0000 C   0  0  0  0  0  0
   -4.6112   -1.6058    0.0000 C   0  0  0  0  0  0
   -0.7821   -1.1437   -0.0000 C   0  0  0  0  0  0
   -3.2143    1.5741   -0.0000 C   0  0  0  0  0  0
   -0.5129    2.4628    0.0000 C   0  0  0  0  0  0
   -6.7019   -4.6490   -0.0000 C   0  0  0  0  0  0
   -5.6405   -5.5619   -0.0000 C   0  0  0  0  0  0
   -2.8992    2.9308    0.0000 C   0  0  0  0  0  0
   -1.5775    3.3619    0.0000 C   0  0  0  0  0  0
    1.4529    0.0014    0.0000 C   0  0  0  0  0  0
   -2.0435   -3.5210   -0.0000 H   0  0  0  0  0  0
   -5.1278   -0.6600    0.0000 H   0  0  0  0  0  0
   -0.3052   -2.1134   -0.0000 H   0  0  0  0  0  0
   -4.2500    1.2763   -0.0000 H   0  0  0  0  0  0
    0.5079    2.8159    0.0000 H   0  0  0  0  0  0
   -5.8294   -6.6253   -0.0000 H   0  0  0  0  0  0
   -3.6950    3.6614    0.0000 H   0  0  0  0  0  0
   -1.3711    4.4224    0.0000 H   0  0  0  0  0  0
    1.8465   -1.0159   -0.0000 H   0  0  0  0  0  0
    1.8073    0.5243    0.8890 H   0  0  0  0  0  0
    1.8073    0.5243   -0.8890 H   0  0  0  0  0  0
  1 16  1  0  0  0
  2  7  1  0  0  0
  2 10  1  0  0  0
  2 21  1  0  0  0
  3 11  1  0  0  0
  3 13  1  0  0  0
  3 20  1  0  0  0
  4  9  2  0  0  0
  4 16  1  0  0  0
  5 10  2  0  0  0
  5 17  1  0  0  0
  6  7  1  0  0  0
  6  8  1  0  0  0
  6 13  2  0  0  0
  7 12  2  0  0  0
  8 11  2  0  0  0
  8 14  1  0  0  0
  9 10  1  0  0  0
  9 12  1  0  0  0
 11 15  1  0  0  0
 12 22  1  0  0  0
 13 23  1  0  0  0
 14 18  2  0  0  0
 14 24  1  0  0  0
 15 19  2  0  0  0
 15 25  1  0  0  0
 16 17  2  0  0  0
 17 26  1  0  0  0
 18 19  1  0  0  0
 18 27  1  0  0  0
 19 28  1  0  0  0
 20 29  1  0  0  0
 20 30  1  0  0  0
 20 31  1  0  0  0
M  END
> <chembl_id>
CHEMBL1978167

> <chembl_pref_name>
None

> <s_m_source_file>
sdf/inactives_sanitized.sdf

> <i_m_source_file_index>
34

> <i_lp_mmshare_version>
49012

> <i_m_ct_stereo_status>
1

> <i_f3d_flags>
0

> <s_epik_input>
QnJjKG4xKVtjSF1uYyhjMTIpW25IXWMoW2NIXTIpLWMzW2NIXW4oW0NIM10pYyhjMzQpW2NIXVtjSF1bY0hdW2NIXTQ=

> <s_epik_cmdline>
J2VwaWtfcHl0aG9uJywgJy1waHQnLCAnMC41JywgJy1waCcsICc3LjUnLCAnLW50JywgJy1tYScsICcyMDAnLCAnLWltYWUnLCAnPGluZmlsZS5tYWU+JywgJy1vbWFlJywgJzxvdXRmaWxlLm1hZT4n

> <r_lp_tautomer_probability>
1

> <r_epik_Ionization_Penalty>
  0.0001

> <r_epik_Ionization_Penalty_Charging>
  0.0000

> <r_epik_Ionization_Penalty_Neutral>
  0.0001

> <r_epik_State_Penalty>
 -0.0000

> <r_epik_Charging_Adjusted_Penalty>
0

> <i_epik_Tot_Q>
0

> <i_epik_Tot_abs_Q>
0

> <s_lp_Force_Field>
OPLS3e

> <r_lp_Energy>
27.798467

> <b_lp_Chiralities_Consistent>
1

> <s_lp_Variant>
sdf/inactives_sanitized.sdf:34-1

$$$$
sdf/inactives_sanitized.sdf:35
                    3D
 Schrodinger Suite 2020-1.
 52 56  0  0  1  0            999 V2000
   11.1969   -0.4150   -1.1412 O   0  0  0  0  0  0
    0.1265    0.2959   -0.4027 O   0  0  0  0  0  0
   -2.3185    6.2411    0.4181 O   0  0  0  0  0  0
    7.9510    0.1801   -0.8221 N   0  0  0  0  0  0
    9.0776   -0.4951    1.2354 N   0  0  0  0  0  0
    7.5842   -1.1198    3.0521 N   0  0  0  0  0  0
    5.2563   -1.1049    2.8554 N   0  0  0  0  0  0
    6.6362   -0.3856    0.9552 C   0  0  0  0  0  0
    7.9846   -0.2441    0.4994 C   0  0  0  0  0  0
    5.7744    0.0060   -0.1354 C   0  0  0  0  0  0
    6.6279    0.3101   -1.1826 C   0  0  0  0  0  0
    6.5002   -0.8584    2.2803 C   0  0  0  0  0  0
    4.2865    0.0911   -0.1836 C   0  0  0  0  0  0
    9.0889    0.4557   -1.7136 C   0  0  2  0  0  0
    8.8025   -0.9212    2.4935 C   0  0  0  0  0  0
    3.6037   -0.4124   -1.2948 C   0  0  0  0  0  0
    3.5679    0.6602    0.8707 C   0  0  0  0  0  0
   10.0279   -0.7481   -1.8813 C   0  0  0  0  0  0
    9.9855    1.5829   -1.2075 C   0  0  0  0  0  0
    1.5004    0.2464   -0.3106 C   0  0  0  0  0  0
    2.2148   -0.3392   -1.3548 C   0  0  0  0  0  0
    2.1793    0.7330    0.8117 C   0  0  0  0  0  0
   11.3930    0.9907   -1.2307 C   0  0  0  0  0  0
   -0.5644    1.4655   -0.1561 C   0  0  0  0  0  0
   -0.0347    2.7329   -0.4323 C   0  0  0  0  0  0
   -1.8614    1.3574    0.3438 C   0  0  0  0  0  0
   -2.0830    3.7665    0.3370 C   0  0  0  0  0  0
   -0.7871    3.8767   -0.1815 C   0  0  0  0  0  0
   -2.6156    2.5007    0.5931 C   0  0  0  0  0  0
   -2.9491    4.9915    0.6281 C   0  0  0  0  0  0
   -2.9453    6.9386    0.6243 H   0  0  0  0  0  0
    4.4182   -0.9406    2.3166 H   0  0  0  0  0  0
    5.2110   -1.4530    3.8021 H   0  0  0  0  0  0
    6.3850    0.6415   -2.1821 H   0  0  0  0  0  0
    8.6541    0.7142   -2.6812 H   0  0  0  0  0  0
    9.6554   -1.1348    3.1209 H   0  0  0  0  0  0
    4.1456   -0.8643   -2.1130 H   0  0  0  0  0  0
    4.0817    1.0637    1.7308 H   0  0  0  0  0  0
   10.2916   -0.9262   -2.9251 H   0  0  0  0  0  0
    9.6139   -1.6872   -1.5107 H   0  0  0  0  0  0
    9.9213    2.4711   -1.8370 H   0  0  0  0  0  0
    9.7337    1.8883   -0.1905 H   0  0  0  0  0  0
    1.6925   -0.7297   -2.2158 H   0  0  0  0  0  0
    1.6318    1.1752    1.6312 H   0  0  0  0  0  0
   12.0147    1.3438   -0.4075 H   0  0  0  0  0  0
   11.9375    1.2226   -2.1477 H   0  0  0  0  0  0
    0.9590    2.8361   -0.8426 H   0  0  0  0  0  0
   -2.2833    0.3833    0.5432 H   0  0  0  0  0  0
   -0.3535    4.8420   -0.3966 H   0  0  0  0  0  0
   -3.6170    2.4003    0.9861 H   0  0  0  0  0  0
   -3.2761    4.9498    1.6679 H   0  0  0  0  0  0
   -3.8367    4.9482   -0.0043 H   0  0  0  0  0  0
  1 18  1  0  0  0
  1 23  1  0  0  0
  2 20  1  0  0  0
  2 24  1  0  0  0
  3 30  1  0  0  0
  3 31  1  0  0  0
  4  9  1  0  0  0
  4 11  1  0  0  0
  4 14  1  0  0  0
  5  9  2  0  0  0
  5 15  1  0  0  0
  6 12  1  0  0  0
  6 15  2  0  0  0
  7 12  1  0  0  0
  7 32  1  0  0  0
  7 33  1  0  0  0
  8  9  1  0  0  0
  8 10  1  0  0  0
  8 12  2  0  0  0
 10 11  2  0  0  0
 10 13  1  0  0  0
 11 34  1  0  0  0
 13 16  2  0  0  0
 13 17  1  0  0  0
 14 18  1  0  0  0
 14 19  1  0  0  0
 14 35  1  0  0  0
 15 36  1  0  0  0
 16 21  1  0  0  0
 16 37  1  0  0  0
 17 22  2  0  0  0
 17 38  1  0  0  0
 18 39  1  0  0  0
 18 40  1  0  0  0
 19 23  1  0  0  0
 19 41  1  0  0  0
 19 42  1  0  0  0
 20 21  2  0  0  0
 20 22  1  0  0  0
 21 43  1  0  0  0
 22 44  1  0  0  0
 23 45  1  0  0  0
 23 46  1  0  0  0
 24 25  2  0  0  0
 24 26  1  0  0  0
 25 28  1  0  0  0
 25 47  1  0  0  0
 26 29  2  0  0  0
 26 48  1  0  0  0
 27 28  2  0  0  0
 27 29  1  0  0  0
 27 30  1  0  0  0
 28 49  1  0  0  0
 29 50  1  0  0  0
 30 51  1  0  0  0
 30 52  1  0  0  0
M  END
> <chembl_id>
CHEMBL1976376

> <chembl_pref_name>
None

> <s_m_source_file>
sdf/inactives_sanitized.sdf

> <i_m_source_file_index>
35

> <i_lp_mmshare_version>
49012

> <i_m_ct_stereo_status>
1

> <i_f3d_flags>
0

> <s_epik_input>
W05IMl1jMW5bY0hdbmMoYzEyKW4oW0NAQEhdM1tDSDJdT1tDSDJdW0NIMl0zKVtjSF1jMi1jNFtjSF1bY0hdYyhbY0hdW2NIXTQpT2M1W2NIXVtjSF1jKFtjSF1bY0hdNSlbQ0gyXVtPSF0=

> <s_epik_cmdline>
J2VwaWtfcHl0aG9uJywgJy1waHQnLCAnMC41JywgJy1waCcsICc3LjUnLCAnLW50JywgJy1tYScsICcyMDAnLCAnLWltYWUnLCAnPGluZmlsZS5tYWU+JywgJy1vbWFlJywgJzxvdXRmaWxlLm1hZT4n

> <r_lp_tautomer_probability>
1

> <r_epik_Ionization_Penalty>
  0.0008

> <r_epik_Ionization_Penalty_Charging>
  0.0000

> <r_epik_Ionization_Penalty_Neutral>
  0.0008

> <r_epik_State_Penalty>
 -0.0000

> <r_epik_Charging_Adjusted_Penalty>
0

> <i_epik_Tot_Q>
0

> <i_epik_Tot_abs_Q>
0

> <s_lp_Force_Field>
OPLS3e

> <r_lp_Energy>
38.98315

> <b_lp_Chiralities_Consistent>
1

> <s_lp_Variant>
sdf/inactives_sanitized.sdf:35-1

$$$$
sdf/inactives_sanitized.sdf:36
                    3D
 Schrodinger Suite 2020-1.
 37 39  0  0  1  0            999 V2000
   -5.2450    0.3540   -0.5210 Cl  0  0  0  0  0  0
   -0.3954    0.8251    0.0510 O   0  0  0  0  0  0
   -5.7240   -6.2522    1.4352 N   0  0  0  0  0  0
   -4.3424   -8.1977    1.0495 N   0  0  0  0  0  0
   -2.8277   -0.6479   -0.0733 N   0  0  0  0  0  0
   -0.5701   -1.4437    0.3090 N   0  0  0  0  0  0
   -4.3126   -4.5938    0.7863 C   0  0  0  0  0  0
   -3.6537   -5.8698    0.6110 C   0  0  0  0  0  0
   -3.7832   -3.2221    0.5109 C   0  0  0  0  0  0
   -4.5669   -6.8799    1.0407 C   0  0  0  0  0  0
   -5.5775   -4.8982    1.2741 C   0  0  0  0  0  0
   -2.4105   -2.9432    0.5366 C   0  0  0  0  0  0
   -1.9614   -1.6495    0.2512 C   0  0  0  0  0  0
   -4.6651   -2.1858    0.1773 C   0  0  0  0  0  0
   -2.4041   -6.3145    0.1343 C   0  0  0  0  0  0
   -4.1557   -0.9182   -0.1071 C   0  0  0  0  0  0
   -2.1433   -7.6861    0.1308 C   0  0  0  0  0  0
   -3.1191   -8.5704    0.5908 C   0  0  0  0  0  0
    0.1170   -0.2828    0.2211 C   0  0  0  0  0  0
    1.6451   -0.4049    0.3333 C   0  0  0  0  0  0
    2.2969    0.7287    1.1548 C   0  0  0  0  0  0
    3.8179    0.5670    1.2827 C   0  0  0  0  0  0
   -6.5694   -6.6751    1.7901 H   0  0  0  0  0  0
   -0.0279   -2.2775    0.4806 H   0  0  0  0  0  0
   -6.3971   -4.2472    1.5420 H   0  0  0  0  0  0
   -1.7008   -3.7111    0.8040 H   0  0  0  0  0  0
   -5.7305   -2.3584    0.1296 H   0  0  0  0  0  0
   -1.6605   -5.6246   -0.2333 H   0  0  0  0  0  0
   -1.1955   -8.0601   -0.2278 H   0  0  0  0  0  0
   -2.9235   -9.6329    0.5910 H   0  0  0  0  0  0
    1.9085   -1.3691    0.7727 H   0  0  0  0  0  0
    2.0502   -0.4032   -0.6795 H   0  0  0  0  0  0
    2.0878    1.6960    0.6945 H   0  0  0  0  0  0
    1.8625    0.7606    2.1556 H   0  0  0  0  0  0
    4.2471    1.3795    1.8696 H   0  0  0  0  0  0
    4.3007    0.5758    0.3048 H   0  0  0  0  0  0
    4.0772   -0.3702    1.7764 H   0  0  0  0  0  0
  1 16  1  0  0  0
  2 19  2  0  0  0
  3 10  1  0  0  0
  3 11  1  0  0  0
  3 23  1  0  0  0
  4 10  2  0  0  0
  4 18  1  0  0  0
  5 13  2  0  0  0
  5 16  1  0  0  0
  6 13  1  0  0  0
  6 19  1  0  0  0
  6 24  1  0  0  0
  7  8  1  0  0  0
  7  9  1  0  0  0
  7 11  2  0  0  0
  8 10  1  0  0  0
  8 15  2  0  0  0
  9 12  2  0  0  0
  9 14  1  0  0  0
 11 25  1  0  0  0
 12 13  1  0  0  0
 12 26  1  0  0  0
 14 16  2  0  0  0
 14 27  1  0  0  0
 15 17  1  0  0  0
 15 28  1  0  0  0
 17 18  2  0  0  0
 17 29  1  0  0  0
 18 30  1  0  0  0
 19 20  1  0  0  0
 20 21  1  0  0  0
 20 31  1  0  0  0
 20 32  1  0  0  0
 21 22  1  0  0  0
 21 33  1  0  0  0
 21 34  1  0  0  0
 22 35  1  0  0  0
 22 36  1  0  0  0
 22 37  1  0  0  0
M  END
> <chembl_id>
CHEMBL1998470

> <chembl_pref_name>
None

> <s_m_source_file>
sdf/inactives_sanitized.sdf

> <i_m_source_file_index>
36

> <i_lp_mmshare_version>
49012

> <i_m_ct_stereo_status>
1

> <i_f3d_flags>
0

> <s_epik_input>
W0NIM11bQ0gyXVtDSDJdQyg9TylbTkhdYyhuYyhDbClbY0hdMSlbY0hdYzEtYzJbY0hdW25IXWMoYzIzKW5bY0hdW2NIXVtjSF0z

> <s_epik_cmdline>
J2VwaWtfcHl0aG9uJywgJy1waHQnLCAnMC41JywgJy1waCcsICc3LjUnLCAnLW50JywgJy1tYScsICcyMDAnLCAnLWltYWUnLCAnPGluZmlsZS5tYWU+JywgJy1vbWFlJywgJzxvdXRmaWxlLm1hZT4n

> <r_lp_tautomer_probability>
1

> <r_epik_Ionization_Penalty>
  0.0006

> <r_epik_Ionization_Penalty_Charging>
  0.0000

> <r_epik_Ionization_Penalty_Neutral>
  0.0006

> <r_epik_State_Penalty>
 -0.0000

> <r_epik_Charging_Adjusted_Penalty>
0

> <i_epik_Tot_Q>
0

> <i_epik_Tot_abs_Q>
0

> <s_lp_Force_Field>
OPLS3e

> <r_lp_Energy>
27.899983

> <b_lp_Chiralities_Consistent>
1

> <s_lp_Variant>
sdf/inactives_sanitized.sdf:36-1

$$$$
sdf/inactives_sanitized.sdf:37
                    3D
 Schrodinger Suite 2020-1.
 31 33  0  0  1  0            999 V2000
    7.0123   -3.0426   -0.8388 O   0  5  0  0  0  0
    8.2731   -1.3091   -0.6235 O   0  0  0  0  0  0
    2.2180   -0.8959   -0.4611 N   0  0  0  0  0  0
    2.4985    1.3050   -0.1787 N   0  0  0  0  0  0
    0.2494    0.4160   -0.2596 N   0  0  0  0  0  0
    7.1645   -1.8347   -0.6771 N   0  3  0  0  0  0
   -0.0356    2.7776    0.1075 N   0  0  0  0  0  0
    3.5802   -0.7018   -0.4600 C   0  0  0  0  0  0
    3.7205    0.6943   -0.2805 C   0  0  0  0  0  0
    1.6242    0.3322   -0.2911 C   0  0  0  0  0  0
    4.6776   -1.5563   -0.5919 C   0  0  0  0  0  0
    5.9592   -0.9771   -0.5411 C   0  0  0  0  0  0
    5.0000    1.2586   -0.2308 C   0  0  0  0  0  0
    6.0994    0.4101   -0.3629 C   0  0  0  0  0  0
   -0.5761    1.5422   -0.0863 C   0  0  0  0  0  0
   -1.9611    1.3461   -0.1187 C   0  0  0  0  0  0
   -2.2607    3.7136    0.2496 C   0  0  0  0  0  0
   -0.8691    3.8353    0.2725 C   0  0  0  0  0  0
   -2.8080    2.4432    0.0519 C   0  0  0  0  0  0
   -3.1576    4.9210    0.4479 C   0  0  0  0  0  0
    1.6989   -1.7553   -0.5641 H   0  0  0  0  0  0
   -0.2870   -0.4300   -0.3802 H   0  0  0  0  0  0
    4.5414   -2.6193   -0.7280 H   0  0  0  0  0  0
    5.1359    2.3215   -0.0949 H   0  0  0  0  0  0
    7.0842    0.8531   -0.3247 H   0  0  0  0  0  0
   -2.3812    0.3626   -0.2729 H   0  0  0  0  0  0
   -0.3955    4.7942    0.4255 H   0  0  0  0  0  0
   -3.8792    2.3048    0.0301 H   0  0  0  0  0  0
   -3.9169    4.7048    1.2004 H   0  0  0  0  0  0
   -3.6738    5.1678   -0.4802 H   0  0  0  0  0  0
   -2.5971    5.7931    0.7874 H   0  0  0  0  0  0
  1  6  1  0  0  0
  2  6  2  0  0  0
  3  8  1  0  0  0
  3 10  1  0  0  0
  3 21  1  0  0  0
  4  9  1  0  0  0
  4 10  2  0  0  0
  5 10  1  0  0  0
  5 15  1  0  0  0
  5 22  1  0  0  0
  6 12  1  0  0  0
  7 15  2  0  0  0
  7 18  1  0  0  0
  8  9  2  0  0  0
  8 11  1  0  0  0
  9 13  1  0  0  0
 11 12  2  0  0  0
 11 23  1  0  0  0
 12 14  1  0  0  0
 13 14  2  0  0  0
 13 24  1  0  0  0
 14 25  1  0  0  0
 15 16  1  0  0  0
 16 19  2  0  0  0
 16 26  1  0  0  0
 17 18  2  0  0  0
 17 19  1  0  0  0
 17 20  1  0  0  0
 18 27  1  0  0  0
 19 28  1  0  0  0
 20 29  1  0  0  0
 20 30  1  0  0  0
 20 31  1  0  0  0
M  CHG  2   1  -1   6   1
M  END
> <chembl_id>
CHEMBL1992937

> <chembl_pref_name>
None

> <s_m_source_file>
sdf/inactives_sanitized.sdf

> <i_m_source_file_index>
37

> <i_lp_mmshare_version>
49012

> <i_m_ct_stereo_status>
1

> <i_f3d_flags>
0

> <s_epik_input>
W08tXVtOK10oPU8pYyhbY0hdMSlbY0hdW2NIXWMoYzEyKW5jKFtuSF0yKVtOSF1jM25bY0hdYyhbQ0gzXSlbY0hdW2NIXTM=

> <s_epik_cmdline>
J2VwaWtfcHl0aG9uJywgJy1waHQnLCAnMC41JywgJy1waCcsICc3LjUnLCAnLW50JywgJy1tYScsICcyMDAnLCAnLWltYWUnLCAnPGluZmlsZS5tYWU+JywgJy1vbWFlJywgJzxvdXRmaWxlLm1hZT4n

> <r_lp_tautomer_probability>
1

> <r_epik_Ionization_Penalty>
  0.0088

> <r_epik_Ionization_Penalty_Charging>
  0.0000

> <r_epik_Ionization_Penalty_Neutral>
  0.0088

> <r_epik_State_Penalty>
 -0.0000

> <r_epik_Charging_Adjusted_Penalty>
0

> <i_epik_Tot_Q>
0

> <i_epik_Tot_abs_Q>
2

> <s_lp_Force_Field>
OPLS3e

> <r_lp_Energy>
19.756193

> <b_lp_Chiralities_Consistent>
1

> <s_lp_Variant>
sdf/inactives_sanitized.sdf:37-1

$$$$
sdf/inactives_sanitized.sdf:38
                    3D
 Schrodinger Suite 2020-1.
 58 63  0  0  1  0            999 V2000
   -5.8369    5.6810    1.0011 F   0  0  0  0  0  0
   -4.0213    6.0109   -0.1231 F   0  0  0  0  0  0
   -3.9219    5.4870    1.9783 F   0  0  0  0  0  0
   11.9838   -4.2536    1.4349 O   0  0  0  0  0  0
   14.0467   -3.3749    1.7622 O   0  0  0  0  0  0
   -0.3352    2.7197   -0.0326 O   0  0  0  0  0  0
    8.0831    1.0377   -0.6637 N   0  0  0  0  0  0
    9.0342    1.8405   -1.2003 N   0  0  0  0  0  0
    7.8807   -0.9896    0.5785 N   0  0  0  0  0  0
    6.1929    2.3388   -1.3934 N   0  0  0  0  0  0
    0.1976    0.4938   -0.0193 N   0  0  0  0  0  0
   -1.9313    1.0766    0.0229 N   0  0  0  0  0  0
    8.6525   -0.0738   -0.0188 C   0  0  0  0  0  0
   10.0616    0.0709   -0.1747 C   0  0  0  0  0  0
    6.7201    1.2327   -0.7152 C   0  0  0  0  0  0
    5.8968    0.2786   -0.0886 C   0  0  0  0  0  0
   11.1623   -0.8201    0.3068 C   0  0  0  0  0  0
   10.1770    1.2612   -0.9032 C   0  0  0  0  0  0
    6.5361   -0.8020    0.5314 C   0  0  0  0  0  0
    4.4079    0.3660   -0.0611 C   0  0  0  0  0  0
   10.9205   -2.1760    0.5972 C   0  0  0  0  0  0
   11.9792   -2.9453    1.0684 C   0  0  0  0  0  0
   13.2219   -2.4158    1.2666 C   0  0  0  0  0  0
   12.4496   -0.2836    0.5227 C   0  0  0  0  0  0
   13.4972   -1.0786    1.0072 C   0  0  0  0  0  0
    3.6311   -0.7178   -0.4831 C   0  0  0  0  0  0
    3.7661    1.5186    0.4040 C   0  0  0  0  0  0
    1.6050    0.5137   -0.0141 C   0  0  0  0  0  0
   13.3291   -4.5767    1.6671 C   0  0  0  0  0  0
    2.2411   -0.6467   -0.4576 C   0  0  0  0  0  0
    2.3766    1.5970    0.4313 C   0  0  0  0  0  0
   -4.4912    3.7957    0.4506 C   0  0  0  0  0  0
   -4.5773    5.2716    0.8369 C   0  0  0  0  0  0
   -3.1374    1.8017    0.0686 C   0  0  0  0  0  0
   -0.6623    1.5327   -0.0033 C   0  0  0  0  0  0
   -3.2442    3.1579    0.4244 C   0  0  0  0  0  0
   -5.6392    3.0635    0.1243 C   0  0  0  0  0  0
   -4.2986    1.0884   -0.2418 C   0  0  0  0  0  0
   -5.5425    1.7161   -0.2176 C   0  0  0  0  0  0
    5.1917    2.4622   -1.4402 H   0  0  0  0  0  0
    6.8228    2.9915   -1.8378 H   0  0  0  0  0  0
   -0.2091   -0.4258   -0.1070 H   0  0  0  0  0  0
   -2.0493    0.0765   -0.0439 H   0  0  0  0  0  0
   11.1080    1.7047   -1.2252 H   0  0  0  0  0  0
    5.9539   -1.5638    1.0301 H   0  0  0  0  0  0
    9.9454   -2.6157    0.4532 H   0  0  0  0  0  0
   12.6443    0.7601    0.3245 H   0  0  0  0  0  0
   14.4764   -0.6553    1.1747 H   0  0  0  0  0  0
    4.1047   -1.6209   -0.8403 H   0  0  0  0  0  0
    4.3457    2.3594    0.7567 H   0  0  0  0  0  0
   13.4307   -5.1556    2.5857 H   0  0  0  0  0  0
   13.7090   -5.1555    0.8230 H   0  0  0  0  0  0
    1.6639   -1.4967   -0.7938 H   0  0  0  0  0  0
    1.9259    2.4984    0.8161 H   0  0  0  0  0  0
   -2.3748    3.7352    0.6976 H   0  0  0  0  0  0
   -6.6135    3.5301    0.1357 H   0  0  0  0  0  0
   -4.2444    0.0427   -0.5104 H   0  0  0  0  0  0
   -6.4331    1.1573   -0.4646 H   0  0  0  0  0  0
  1 33  1  0  0  0
  2 33  1  0  0  0
  3 33  1  0  0  0
  4 22  1  0  0  0
  4 29  1  0  0  0
  5 23  1  0  0  0
  5 29  1  0  0  0
  6 35  2  0  0  0
  7  8  1  0  0  0
  7 13  1  0  0  0
  7 15  1  0  0  0
  8 18  2  0  0  0
  9 13  1  0  0  0
  9 19  2  0  0  0
 10 15  1  0  0  0
 10 40  1  0  0  0
 10 41  1  0  0  0
 11 28  1  0  0  0
 11 35  1  0  0  0
 11 42  1  0  0  0
 12 34  1  0  0  0
 12 35  1  0  0  0
 12 43  1  0  0  0
 13 14  2  0  0  0
 14 17  1  0  0  0
 14 18  1  0  0  0
 15 16  2  0  0  0
 16 19  1  0  0  0
 16 20  1  0  0  0
 17 21  1  0  0  0
 17 24  2  0  0  0
 18 44  1  0  0  0
 19 45  1  0  0  0
 20 26  2  0  0  0
 20 27  1  0  0  0
 21 22  2  0  0  0
 21 46  1  0  0  0
 22 23  1  0  0  0
 23 25  2  0  0  0
 24 25  1  0  0  0
 24 47  1  0  0  0
 25 48  1  0  0  0
 26 30  1  0  0  0
 26 49  1  0  0  0
 27 31  2  0  0  0
 27 50  1  0  0  0
 28 30  2  0  0  0
 28 31  1  0  0  0
 29 51  1  0  0  0
 29 52  1  0  0  0
 30 53  1  0  0  0
 31 54  1  0  0  0
 32 33  1  0  0  0
 32 36  2  0  0  0
 32 37  1  0  0  0
 34 36  1  0  0  0
 34 38  2  0  0  0
 36 55  1  0  0  0
 37 39  2  0  0  0
 37 56  1  0  0  0
 38 39  1  0  0  0
 38 57  1  0  0  0
 39 58  1  0  0  0
M  END
> <chembl_id>
CHEMBL1977134

> <chembl_pref_name>
None

> <s_m_source_file>
sdf/inactives_sanitized.sdf

> <i_m_source_file_index>
38

> <i_lp_mmshare_version>
49012

> <i_m_ct_stereo_status>
1

> <i_f3d_flags>
0

> <s_epik_input>
RkMoRikoRiljMVtjSF1jKFtjSF1bY0hdW2NIXTEpW05IXUMoPU8pW05IXWMoW2NIXVtjSF0yKVtjSF1bY0hdYzItYyhjM1tOSDJdKVtjSF1uYyhuMzQpYyhbY0hdbjQpLWMoW2NIXTUpW2NIXVtjSF1jKGM1NilPW0NIMl1PNg==

> <s_epik_cmdline>
J2VwaWtfcHl0aG9uJywgJy1waHQnLCAnMC41JywgJy1waCcsICc3LjUnLCAnLW50JywgJy1tYScsICcyMDAnLCAnLWltYWUnLCAnPGluZmlsZS5tYWU+JywgJy1vbWFlJywgJzxvdXRmaWxlLm1hZT4n

> <r_lp_tautomer_probability>
1

> <r_epik_Ionization_Penalty>
  0.0000

> <r_epik_Ionization_Penalty_Charging>
  0.0000

> <r_epik_Ionization_Penalty_Neutral>
  0.0000

> <r_epik_State_Penalty>
 -0.0000

> <r_epik_Charging_Adjusted_Penalty>
0

> <i_epik_Tot_Q>
0

> <i_epik_Tot_abs_Q>
0

> <s_epik_Chemistry_Notes>
This compound contains an acetal/aminal-like group ( X-CH(R)-Y where X, Y are N, S, or O) that may be acid/base labile, releasing an aldehyde.

> <s_lp_Force_Field>
OPLS3e

> <r_lp_Energy>
62.245845

> <b_lp_Chiralities_Consistent>
1

> <s_lp_Variant>
sdf/inactives_sanitized.sdf:38-1

$$$$
sdf/inactives_sanitized.sdf:39
                    3D
 Schrodinger Suite 2020-1.
 45 48  0  0  1  0            999 V2000
    4.8342    0.4450    1.2906 S   0  0  0  0  0  0
    0.0588    1.9572    0.5777 O   0  0  0  0  0  0
   -3.2577    4.6701   -5.5218 N   0  0  0  0  0  0
   -1.6661    0.9077   -0.4963 N   0  0  0  0  0  0
   -2.6198    3.7542   -7.6636 N   0  0  0  0  0  0
    0.3220   -0.1685   -0.1218 N   0  0  0  0  0  0
   -2.6019    3.0003   -4.1287 C   0  0  0  0  0  0
   -2.2823    2.6292   -5.4931 C   0  0  0  0  0  0
   -2.7208    3.6988   -6.3318 C   0  0  0  0  0  0
   -2.4000    2.2509   -2.8819 C   0  0  0  0  0  0
   -3.1803    4.2612   -4.2154 C   0  0  0  0  0  0
   -1.6666    1.5384   -6.1413 C   0  0  0  0  0  0
   -2.2772    0.9035   -2.8806 C   0  0  0  0  0  0
   -2.2992    3.0276   -1.5642 C   0  0  0  0  0  0
   -2.0351    0.0347   -1.6419 C   0  0  0  0  0  0
   -2.5389    2.0904   -0.3547 C   0  0  0  0  0  0
   -0.3880    0.9742   -0.0207 C   0  0  0  0  0  0
   -1.5475    1.5701   -7.5320 C   0  0  0  0  0  0
   -2.0309    2.6724   -8.2361 C   0  0  0  0  0  0
    4.1644    0.0377   -0.2693 C   0  0  0  0  0  0
    1.7134   -0.3490    0.2904 C   0  0  0  0  0  0
    2.7291    0.3626   -0.6276 C   0  0  0  0  0  0
    5.1368   -0.6011   -1.0391 C   0  0  0  0  0  0
    6.3705   -0.2376    0.8795 C   0  0  0  0  0  0
    6.3709   -0.7556   -0.4018 C   0  0  0  0  0  0
   -3.6551    5.5568   -5.7968 H   0  0  0  0  0  0
   -0.1307   -0.9785   -0.5192 H   0  0  0  0  0  0
   -3.5670    4.9124   -3.4455 H   0  0  0  0  0  0
   -1.2778    0.6956   -5.5920 H   0  0  0  0  0  0
   -2.3879    0.3745   -3.8125 H   0  0  0  0  0  0
   -1.3002    3.4591   -1.4864 H   0  0  0  0  0  0
   -3.0047    3.8565   -1.5233 H   0  0  0  0  0  0
   -1.2572   -0.6861   -1.8943 H   0  0  0  0  0  0
   -2.9157   -0.5615   -1.4009 H   0  0  0  0  0  0
   -3.5710    1.7370   -0.3501 H   0  0  0  0  0  0
   -2.4308    2.5676    0.6208 H   0  0  0  0  0  0
   -1.0813    0.7498   -8.0580 H   0  0  0  0  0  0
   -1.9419    2.7035   -9.3122 H   0  0  0  0  0  0
    1.8399   -0.0351    1.3285 H   0  0  0  0  0  0
    1.9117   -1.4214    0.2818 H   0  0  0  0  0  0
    2.5779    1.4414   -0.5716 H   0  0  0  0  0  0
    2.5334    0.0867   -1.6649 H   0  0  0  0  0  0
    4.9513   -0.9484   -2.0446 H   0  0  0  0  0  0
    7.1845   -0.2244    1.5890 H   0  0  0  0  0  0
    7.2278   -1.2281   -0.8589 H   0  0  0  0  0  0
  1 20  1  0  0  0
  1 24  1  0  0  0
  2 17  2  0  0  0
  3  9  1  0  0  0
  3 11  1  0  0  0
  3 26  1  0  0  0
  4 15  1  0  0  0
  4 16  1  0  0  0
  4 17  1  0  0  0
  5  9  2  0  0  0
  5 19  1  0  0  0
  6 17  1  0  0  0
  6 21  1  0  0  0
  6 27  1  0  0  0
  7  8  1  0  0  0
  7 10  1  0  0  0
  7 11  2  0  0  0
  8  9  1  0  0  0
  8 12  2  0  0  0
 10 13  2  0  0  0
 10 14  1  0  0  0
 11 28  1  0  0  0
 12 18  1  0  0  0
 12 29  1  0  0  0
 13 15  1  0  0  0
 13 30  1  0  0  0
 14 16  1  0  0  0
 14 31  1  0  0  0
 14 32  1  0  0  0
 15 33  1  0  0  0
 15 34  1  0  0  0
 16 35  1  0  0  0
 16 36  1  0  0  0
 18 19  2  0  0  0
 18 37  1  0  0  0
 19 38  1  0  0  0
 20 22  1  0  0  0
 20 23  2  0  0  0
 21 22  1  0  0  0
 21 39  1  0  0  0
 21 40  1  0  0  0
 22 41  1  0  0  0
 22 42  1  0  0  0
 23 25  1  0  0  0
 23 43  1  0  0  0
 24 25  2  0  0  0
 24 44  1  0  0  0
 25 45  1  0  0  0
M  END
> <chembl_id>
CHEMBL1987535

> <chembl_pref_name>
None

> <s_m_source_file>
sdf/inactives_sanitized.sdf

> <i_m_source_file_index>
39

> <i_lp_mmshare_version>
49012

> <i_m_ct_stereo_status>
1

> <i_f3d_flags>
0

> <s_epik_input>
W2NIXTFbY0hdW2NIXXNjMVtDSDJdW0NIMl1bTkhdQyg9TylOMltDSDJdW0NIXT1DKFtDSDJdW0NIMl0yKWMzW2NIXVtuSF1jKGMzNCluW2NIXVtjSF1bY0hdNA==

> <s_epik_cmdline>
J2VwaWtfcHl0aG9uJywgJy1waHQnLCAnMC41JywgJy1waCcsICc3LjUnLCAnLW50JywgJy1tYScsICcyMDAnLCAnLWltYWUnLCAnPGluZmlsZS5tYWU+JywgJy1vbWFlJywgJzxvdXRmaWxlLm1hZT4n

> <r_lp_tautomer_probability>
1

> <r_epik_Ionization_Penalty>
  0.0011

> <r_epik_Ionization_Penalty_Charging>
  0.0000

> <r_epik_Ionization_Penalty_Neutral>
  0.0011

> <r_epik_State_Penalty>
 -0.0000

> <r_epik_Charging_Adjusted_Penalty>
0

> <i_epik_Tot_Q>
0

> <i_epik_Tot_abs_Q>
0

> <s_lp_Force_Field>
OPLS3e

> <r_lp_Energy>
41.894522

> <b_lp_Chiralities_Consistent>
1

> <s_lp_Variant>
sdf/inactives_sanitized.sdf:39-1

$$$$
sdf/inactives_sanitized.sdf:40
                    3D
 Schrodinger Suite 2020-1.
 35 36  0  0  1  0            999 V2000
   -3.0488    5.0640    0.2287 Cl  0  0  0  0  0  0
   -4.3182   -0.0249   -1.8582 S   0  0  0  0  0  0
   -2.0084    1.2088   -0.2249 N   0  0  0  0  0  0
   -4.1493    2.2858   -0.3403 N   0  0  0  0  0  0
   -0.0107    2.4765    0.2195 N   0  0  0  0  0  0
    0.0445    0.1079   -0.1386 N   0  0  0  0  0  0
   -6.2461    1.4217   -0.9554 N   0  0  0  0  0  0
   -2.7556    2.3458   -0.1469 C   0  0  0  0  0  0
   -2.1521    3.5866    0.1191 C   0  0  0  0  0  0
   -0.6683    1.3133   -0.0403 C   0  0  0  0  0  0
   -4.9387    1.3374   -0.9589 C   0  0  0  0  0  0
   -0.7672    3.6003    0.2968 C   0  0  0  0  0  0
    1.5011    0.0213   -0.0088 C   0  0  2  0  0  0
   -5.9552   -0.4863   -2.2089 C   0  0  0  0  0  0
   -6.8142    0.4361   -1.6235 C   0  0  0  0  0  0
    2.0775   -1.1768   -0.8230 C   0  0  0  0  0  0
    1.9023   -0.0086    1.4824 C   0  0  0  0  0  0
    3.6073   -1.3287   -0.6801 C   0  0  0  0  0  0
    1.7105   -1.0945   -2.3218 C   0  0  0  0  0  0
   -4.5857    3.1627   -0.0943 H   0  0  0  0  0  0
   -0.4653   -0.7379   -0.3492 H   0  0  0  0  0  0
   -0.2419    4.5213    0.5031 H   0  0  0  0  0  0
    1.9298    0.9282   -0.4388 H   0  0  0  0  0  0
   -6.1887   -1.3614   -2.7972 H   0  0  0  0  0  0
   -7.8921    0.3988   -1.6828 H   0  0  0  0  0  0
    1.6266   -2.0928   -0.4364 H   0  0  0  0  0  0
    2.9793    0.0916    1.6138 H   0  0  0  0  0  0
    1.5890   -0.9368    1.9620 H   0  0  0  0  0  0
    1.4487    0.8147    2.0354 H   0  0  0  0  0  0
    4.1270   -0.4148   -0.9701 H   0  0  0  0  0  0
    3.9866   -2.1365   -1.3072 H   0  0  0  0  0  0
    3.8985   -1.5693    0.3421 H   0  0  0  0  0  0
    2.1067   -0.1869   -2.7788 H   0  0  0  0  0  0
    0.6311   -1.0978   -2.4765 H   0  0  0  0  0  0
    2.1103   -1.9447   -2.8757 H   0  0  0  0  0  0
  1  9  1  0  0  0
  2 11  1  0  0  0
  2 14  1  0  0  0
  3  8  2  0  0  0
  3 10  1  0  0  0
  4  8  1  0  0  0
  4 11  1  0  0  0
  4 20  1  0  0  0
  5 10  2  0  0  0
  5 12  1  0  0  0
  6 10  1  0  0  0
  6 13  1  0  0  0
  6 21  1  0  0  0
  7 11  2  0  0  0
  7 15  1  0  0  0
  8  9  1  0  0  0
  9 12  2  0  0  0
 12 22  1  0  0  0
 13 16  1  0  0  0
 13 17  1  0  0  0
 13 23  1  0  0  0
 14 15  2  0  0  0
 14 24  1  0  0  0
 15 25  1  0  0  0
 16 18  1  0  0  0
 16 19  1  0  0  0
 16 26  1  0  0  0
 17 27  1  0  0  0
 17 28  1  0  0  0
 17 29  1  0  0  0
 18 30  1  0  0  0
 18 31  1  0  0  0
 18 32  1  0  0  0
 19 33  1  0  0  0
 19 34  1  0  0  0
 19 35  1  0  0  0
M  END
> <chembl_id>
CHEMBL1993374

> <chembl_pref_name>
None

> <s_m_source_file>
sdf/inactives_sanitized.sdf

> <i_m_source_file_index>
40

> <i_lp_mmshare_version>
49012

> <i_m_ct_stereo_status>
1

> <i_f3d_flags>
0

> <s_epik_input>
Q2xjMVtjSF1uYyhbTkhdW0NAQEhdKFtDSDNdKVtDSF0oW0NIM10pW0NIM10pbmMxW05IXWMyc1tjSF1bY0hdbjI=

> <s_epik_cmdline>
J2VwaWtfcHl0aG9uJywgJy1waHQnLCAnMC41JywgJy1waCcsICc3LjUnLCAnLW50JywgJy1tYScsICcyMDAnLCAnLWltYWUnLCAnPGluZmlsZS5tYWU+JywgJy1vbWFlJywgJzxvdXRmaWxlLm1hZT4n

> <r_lp_tautomer_probability>
1

> <r_epik_Ionization_Penalty>
  0.0001

> <r_epik_Ionization_Penalty_Charging>
  0.0000

> <r_epik_Ionization_Penalty_Neutral>
  0.0001

> <r_epik_State_Penalty>
 -0.0000

> <r_epik_Charging_Adjusted_Penalty>
0

> <i_epik_Tot_Q>
0

> <i_epik_Tot_abs_Q>
0

> <s_lp_Force_Field>
OPLS3e

> <r_lp_Energy>
19.243443

> <b_lp_Chiralities_Consistent>
1

> <s_lp_Variant>
sdf/inactives_sanitized.sdf:40-1

$$$$
sdf/inactives_sanitized.sdf:41
                    3D
 Schrodinger Suite 2020-1.
 41 43  0  0  1  0            999 V2000
    5.7711   -4.2588   -1.0376 S   0  0  0  0  0  0
   -1.6046   -0.5676   -2.8674 O   0  0  0  0  0  0
    4.5124   -1.7338    0.0994 N   0  0  0  0  0  0
    2.4698   -0.6244    0.2231 N   0  0  0  0  0  0
    4.3788    0.3628    1.2909 N   0  0  0  0  0  0
    0.4643    0.3572   -0.6165 N   0  0  0  0  0  0
    2.4301    1.6095   -0.6637 N   0  0  0  0  0  0
    5.8347   -1.8267    0.4174 C   0  0  0  0  0  0
    6.5737   -3.0342   -0.0774 C   0  0  0  0  0  0
    3.8379   -0.6379    0.5360 C   0  0  0  0  0  0
    6.4721   -0.8356    1.1761 C   0  0  0  0  0  0
    7.9135   -3.3793    0.1151 C   0  0  0  0  0  0
   -0.2907   -1.8778   -1.3665 C   0  0  0  0  0  0
    1.8523    0.3674   -0.3009 C   0  0  0  0  0  0
    5.6972    0.2480    1.5944 C   0  0  0  0  0  0
   -0.8899   -1.7287   -2.6294 C   0  0  0  0  0  0
   -0.4007   -0.7806   -0.3107 C   0  0  0  0  0  0
    7.2273   -5.1884   -1.1573 C   0  0  0  0  0  0
    8.2799   -4.5855   -0.4903 C   0  0  0  0  0  0
    0.4596   -3.0223   -1.0765 C   0  0  0  0  0  0
   -0.7331   -2.7558   -3.5782 C   0  0  0  0  0  0
    0.6090   -4.0285   -2.0278 C   0  0  0  0  0  0
    0.0107   -3.8959   -3.2778 C   0  0  0  0  0  0
   -2.2151   -0.3700   -4.1377 C   0  0  0  0  0  0
    0.0071    1.2194   -0.8743 H   0  0  0  0  0  0
    3.3875    1.8327   -0.4330 H   0  0  0  0  0  0
    7.5183   -0.8958    1.4366 H   0  0  0  0  0  0
    8.6104   -2.7767    0.6780 H   0  0  0  0  0  0
    6.1292    1.0420    2.1858 H   0  0  0  0  0  0
   -0.2000   -1.1712    0.6887 H   0  0  0  0  0  0
   -1.4273   -0.4131   -0.2962 H   0  0  0  0  0  0
    7.2380   -6.1194   -1.7046 H   0  0  0  0  0  0
    9.2755   -5.0016   -0.4426 H   0  0  0  0  0  0
    0.9356   -3.1313   -0.1125 H   0  0  0  0  0  0
   -1.1784   -2.6862   -4.5589 H   0  0  0  0  0  0
    1.1913   -4.9083   -1.7963 H   0  0  0  0  0  0
    0.1268   -4.6750   -4.0166 H   0  0  0  0  0  0
   -2.7231    0.5940   -4.1457 H   0  0  0  0  0  0
   -2.9611   -1.1380   -4.3468 H   0  0  0  0  0  0
   -1.4756   -0.3599   -4.9396 H   0  0  0  0  0  0
    1.8653    2.3984   -0.9420 H   0  0  0  0  0  0
  1  9  1  0  0  0
  1 18  1  0  0  0
  2 16  1  0  0  0
  2 24  1  0  0  0
  3  8  2  0  0  0
  3 10  1  0  0  0
  4 10  1  0  0  0
  4 14  2  0  0  0
  5 10  2  0  0  0
  5 15  1  0  0  0
  6 14  1  0  0  0
  6 17  1  0  0  0
  6 25  1  0  0  0
  7 14  1  0  0  0
  7 26  1  0  0  0
  7 41  1  0  0  0
  8  9  1  0  0  0
  8 11  1  0  0  0
  9 12  2  0  0  0
 11 15  2  0  0  0
 11 27  1  0  0  0
 12 19  1  0  0  0
 12 28  1  0  0  0
 13 16  2  0  0  0
 13 17  1  0  0  0
 13 20  1  0  0  0
 15 29  1  0  0  0
 16 21  1  0  0  0
 17 30  1  0  0  0
 17 31  1  0  0  0
 18 19  2  0  0  0
 18 32  1  0  0  0
 19 33  1  0  0  0
 20 22  2  0  0  0
 20 34  1  0  0  0
 21 23  2  0  0  0
 21 35  1  0  0  0
 22 23  1  0  0  0
 22 36  1  0  0  0
 23 37  1  0  0  0
 24 38  1  0  0  0
 24 39  1  0  0  0
 24 40  1  0  0  0
M  END
> <chembl_id>
CHEMBL1997197

> <chembl_pref_name>
None

> <s_m_source_file>
sdf/inactives_sanitized.sdf

> <i_m_source_file_index>
41

> <i_lp_mmshare_version>
49012

> <i_m_ct_stereo_status>
1

> <i_f3d_flags>
0

> <s_epik_input>
W2NIXTFbY0hdW2NIXXNjMS1jMm5jKG5bY0hdW2NIXTIpW05IXVxDKD1OXFtIXSlbTkhdW0NIMl1jM2MoT1tDSDNdKVtjSF1bY0hdW2NIXVtjSF0z

> <s_epik_cmdline>
J2VwaWtfcHl0aG9uJywgJy1waHQnLCAnMC41JywgJy1waCcsICc3LjUnLCAnLW50JywgJy1tYScsICcyMDAnLCAnLWltYWUnLCAnPGluZmlsZS5tYWU+JywgJy1vbWFlJywgJzxvdXRmaWxlLm1hZT4n

> <r_lp_tautomer_probability>
1

> <r_epik_Ionization_Penalty>
  0.1197

> <r_epik_Ionization_Penalty_Charging>
  0.0000

> <r_epik_Ionization_Penalty_Neutral>
  0.1197

> <r_epik_State_Penalty>
  0.3846

> <r_epik_Charging_Adjusted_Penalty>
0.384596350333697

> <i_epik_Tot_Q>
0

> <i_epik_Tot_abs_Q>
0

> <s_epik_Chemistry_Notes>
This compound has an imine and may undergo hydrolysis.

> <s_lp_Force_Field>
OPLS3e

> <r_lp_Energy>
37.732891

> <b_lp_Chiralities_Consistent>
1

> <s_lp_Variant>
sdf/inactives_sanitized.sdf:41-1

$$$$
sdf/inactives_sanitized.sdf:42
                    3D
 Schrodinger Suite 2020-1.
 39 41  0  0  1  0            999 V2000
   -3.2348    6.0202   -0.0929 F   0  0  0  0  0  0
   -3.3345    5.4697    2.0018 F   0  0  0  0  0  0
   -5.1371    5.9870    0.9299 F   0  0  0  0  0  0
    4.1023   -4.5938   -1.6434 O   0  0  0  0  0  0
   -0.1707    2.5808    0.3643 O   0  0  0  0  0  0
    0.2564    0.3964   -0.1961 N   0  0  0  0  0  0
   -2.9413    3.2067    0.3193 N   0  0  0  0  0  0
    4.4657   -0.0911    0.0979 N   0  0  0  0  0  0
   -1.8351    1.1002   -0.1572 N   0  0  0  0  0  0
    2.2619   -0.9688   -0.4887 C   0  0  0  0  0  0
    1.6611    0.2726   -0.0920 C   0  0  0  0  0  0
    3.6822   -1.0978   -0.3743 C   0  0  0  0  0  0
   -4.1027    3.9066    0.4322 C   0  0  0  0  0  0
   -3.9558    5.3750    0.8253 C   0  0  0  0  0  0
   -2.9951    1.8869   -0.0245 C   0  0  0  0  0  0
    1.5299   -2.0812   -0.9913 C   0  0  0  0  0  0
    4.3136   -2.3059   -0.7587 C   0  0  0  0  0  0
    3.5635   -3.3840   -1.2494 C   0  0  0  0  0  0
   -0.5469    1.4555    0.0342 C   0  0  0  0  0  0
    2.5014    1.2852    0.3990 C   0  0  0  0  0  0
    2.1818   -3.2547   -1.3575 C   0  0  0  0  0  0
   -5.3516    3.3164    0.2044 C   0  0  0  0  0  0
    3.8711    1.0638    0.4723 C   0  0  0  0  0  0
   -4.2128    1.2417   -0.2644 C   0  0  0  0  0  0
   -5.3996    1.9673   -0.1480 C   0  0  0  0  0  0
    5.5106   -4.7864   -1.5647 C   0  0  0  0  0  0
   -0.2068   -0.4544   -0.4790 H   0  0  0  0  0  0
   -2.0054    0.1422   -0.4249 H   0  0  0  0  0  0
    0.4563   -2.0233   -1.0933 H   0  0  0  0  0  0
    5.3874   -2.3726   -0.6618 H   0  0  0  0  0  0
    2.1327    2.2406    0.7338 H   0  0  0  0  0  0
    1.5994   -4.0828   -1.7350 H   0  0  0  0  0  0
   -6.2672    3.8820    0.2964 H   0  0  0  0  0  0
    4.5269    1.8355    0.8483 H   0  0  0  0  0  0
   -4.2475    0.1961   -0.5360 H   0  0  0  0  0  0
   -6.3501    1.4871   -0.3289 H   0  0  0  0  0  0
    5.7562   -5.7898   -1.9122 H   0  0  0  0  0  0
    5.8713   -4.6955   -0.5390 H   0  0  0  0  0  0
    6.0464   -4.0777   -2.1979 H   0  0  0  0  0  0
  1 14  1  0  0  0
  2 14  1  0  0  0
  3 14  1  0  0  0
  4 18  1  0  0  0
  4 26  1  0  0  0
  5 19  2  0  0  0
  6 11  1  0  0  0
  6 19  1  0  0  0
  6 27  1  0  0  0
  7 13  2  0  0  0
  7 15  1  0  0  0
  8 12  2  0  0  0
  8 23  1  0  0  0
  9 15  1  0  0  0
  9 19  1  0  0  0
  9 28  1  0  0  0
 10 11  2  0  0  0
 10 12  1  0  0  0
 10 16  1  0  0  0
 11 20  1  0  0  0
 12 17  1  0  0  0
 13 14  1  0  0  0
 13 22  1  0  0  0
 15 24  2  0  0  0
 16 21  2  0  0  0
 16 29  1  0  0  0
 17 18  2  0  0  0
 17 30  1  0  0  0
 18 21  1  0  0  0
 20 23  2  0  0  0
 20 31  1  0  0  0
 21 32  1  0  0  0
 22 25  2  0  0  0
 22 33  1  0  0  0
 23 34  1  0  0  0
 24 25  1  0  0  0
 24 35  1  0  0  0
 25 36  1  0  0  0
 26 37  1  0  0  0
 26 38  1  0  0  0
 26 39  1  0  0  0
M  END
> <chembl_id>
CHEMBL1982660

> <chembl_pref_name>
None

> <s_m_source_file>
sdf/inactives_sanitized.sdf

> <i_m_source_file_index>
42

> <i_lp_mmshare_version>
49012

> <i_m_ct_stereo_status>
1

> <i_f3d_flags>
0

> <s_epik_input>
RkMoRikoRiljMW5jKFtjSF1bY0hdW2NIXTEpW05IXUMoPU8pW05IXWMyW2NIXVtjSF1uYyhjMjMpW2NIXWMoT1tDSDNdKVtjSF1bY0hdMw==

> <s_epik_cmdline>
J2VwaWtfcHl0aG9uJywgJy1waHQnLCAnMC41JywgJy1waCcsICc3LjUnLCAnLW50JywgJy1tYScsICcyMDAnLCAnLWltYWUnLCAnPGluZmlsZS5tYWU+JywgJy1vbWFlJywgJzxvdXRmaWxlLm1hZT4n

> <r_epik_Ionization_Penalty>
  0.0807

> <r_epik_Ionization_Penalty_Charging>
  0.0000

> <r_epik_Ionization_Penalty_Neutral>
  0.0807

> <r_epik_State_Penalty>
  0.0715

> <r_epik_Charging_Adjusted_Penalty>
0.0714702846124549

> <i_epik_Tot_Q>
0

> <i_epik_Tot_abs_Q>
0

> <s_lp_Force_Field>
OPLS3e

> <r_lp_Energy>
50.199298

> <b_lp_Chiralities_Consistent>
1

> <s_lp_Variant>
sdf/inactives_sanitized.sdf:42-1

$$$$
sdf/inactives_sanitized.sdf:43
                    3D
 Schrodinger Suite 2020-1.
 33 35  0  0  1  0            999 V2000
    5.5467   -2.6257   -0.7154 O   0  0  0  0  0  0
   -0.2349    2.5652    0.0520 O   0  0  0  0  0  0
    0.1602    0.3134   -0.1422 N   0  0  0  0  0  0
   -1.9268    1.0306   -0.0896 N   0  0  0  0  0  0
   -3.0160    3.1891    0.1969 N   0  0  0  0  0  0
   -5.4840    1.8915   -0.1437 N   0  0  0  0  0  0
    2.1683   -1.0435   -0.4694 C   0  0  0  0  0  0
    3.5918   -1.1998   -0.3789 C   0  0  0  0  0  0
    1.5683    0.1995   -0.0697 C   0  0  0  0  0  0
    4.1894   -2.4312   -0.7837 C   0  0  0  0  0  0
    1.4055   -2.1430   -0.9648 C   0  0  0  0  0  0
    4.3684   -0.1199    0.1157 C   0  0  0  0  0  0
    2.3897    1.2199    0.4333 C   0  0  0  0  0  0
   -0.6303    1.4023   -0.0443 C   0  0  0  0  0  0
    3.7653    1.0632    0.5163 C   0  0  0  0  0  0
    3.3961   -3.4708   -1.2595 C   0  0  0  0  0  0
   -3.0748    1.8414   -0.0238 C   0  0  0  0  0  0
    2.0193   -3.3290   -1.3486 C   0  0  0  0  0  0
   -4.3115    1.2053   -0.1895 C   0  0  0  0  0  0
   -4.1869    3.8763    0.2435 C   0  0  0  0  0  0
   -5.4132    3.2307    0.0732 C   0  0  0  0  0  0
    5.8148   -3.4956   -1.0196 H   0  0  0  0  0  0
   -0.3157   -0.5705   -0.2466 H   0  0  0  0  0  0
   -2.1124    0.0445   -0.1993 H   0  0  0  0  0  0
    0.3316   -2.0658   -1.0496 H   0  0  0  0  0  0
    5.4416   -0.2186    0.1917 H   0  0  0  0  0  0
    1.9859    2.1553    0.7847 H   0  0  0  0  0  0
    4.3722    1.8685    0.9031 H   0  0  0  0  0  0
    3.8500   -4.4026   -1.5643 H   0  0  0  0  0  0
    1.4201   -4.1473   -1.7201 H   0  0  0  0  0  0
   -4.3836    0.1412   -0.3634 H   0  0  0  0  0  0
   -4.1290    4.9405    0.4176 H   0  0  0  0  0  0
   -6.3453    3.7752    0.1087 H   0  0  0  0  0  0
  1 10  1  0  0  0
  1 22  1  0  0  0
  2 14  2  0  0  0
  3  9  1  0  0  0
  3 14  1  0  0  0
  3 23  1  0  0  0
  4 14  1  0  0  0
  4 17  1  0  0  0
  4 24  1  0  0  0
  5 17  2  0  0  0
  5 20  1  0  0  0
  6 19  2  0  0  0
  6 21  1  0  0  0
  7  8  1  0  0  0
  7  9  1  0  0  0
  7 11  2  0  0  0
  8 10  2  0  0  0
  8 12  1  0  0  0
  9 13  2  0  0  0
 10 16  1  0  0  0
 11 18  1  0  0  0
 11 25  1  0  0  0
 12 15  2  0  0  0
 12 26  1  0  0  0
 13 15  1  0  0  0
 13 27  1  0  0  0
 15 28  1  0  0  0
 16 18  2  0  0  0
 16 29  1  0  0  0
 17 19  1  0  0  0
 18 30  1  0  0  0
 19 31  1  0  0  0
 20 21  2  0  0  0
 20 32  1  0  0  0
 21 33  1  0  0  0
M  END
> <chembl_id>
CHEMBL1992371

> <chembl_pref_name>
None

> <s_m_source_file>
sdf/inactives_sanitized.sdf

> <i_m_source_file_index>
43

> <i_lp_mmshare_version>
49012

> <i_m_ct_stereo_status>
1

> <i_f3d_flags>
0

> <s_epik_input>
W2NIXTFbY0hdW2NIXWMoW09IXSljKGMxMilbY0hdW2NIXVtjSF1jMltOSF1DKD1PKVtOSF1jM25bY0hdW2NIXW5bY0hdMw==

> <s_epik_cmdline>
J2VwaWtfcHl0aG9uJywgJy1waHQnLCAnMC41JywgJy1waCcsICc3LjUnLCAnLW50JywgJy1tYScsICcyMDAnLCAnLWltYWUnLCAnPGluZmlsZS5tYWU+JywgJy1vbWFlJywgJzxvdXRmaWxlLm1hZT4n

> <r_lp_tautomer_probability>
1

> <r_epik_Ionization_Penalty>
  0.0069

> <r_epik_Ionization_Penalty_Charging>
  0.0000

> <r_epik_Ionization_Penalty_Neutral>
  0.0069

> <r_epik_State_Penalty>
 -0.0000

> <r_epik_Charging_Adjusted_Penalty>
0

> <i_epik_Tot_Q>
0

> <i_epik_Tot_abs_Q>
0

> <s_lp_Force_Field>
OPLS3e

> <r_lp_Energy>
48.835102

> <b_lp_Chiralities_Consistent>
1

> <s_lp_Variant>
sdf/inactives_sanitized.sdf:43-1

$$$$
sdf/inactives_sanitized.sdf:44
                    3D
 Schrodinger Suite 2020-1.
 68 71  0  0  1  0            999 V2000
    7.8524   -1.7420    1.6442 O   0  0  0  0  0  0
    6.5277    1.2818    2.9462 O   0  0  0  0  0  0
   -0.7239   -0.2629    0.7829 O   0  0  0  0  0  0
   -3.2236   -1.1661    0.9672 O   0  0  0  0  0  0
   -6.0764    1.0275   -1.0440 O   0  0  0  0  0  0
    3.8376   -1.6600    0.1542 N   0  0  0  0  0  0
    3.4971   -2.7111   -0.6161 N   0  0  0  0  0  0
    5.7295   -0.8434    1.4484 N   0  0  0  0  0  0
   -4.1544    0.8905    1.1923 N   0  0  0  0  0  0
    5.1365   -1.7792    0.6143 C   0  0  0  0  0  0
    4.5372   -3.5189   -0.6678 C   0  0  0  0  0  0
    2.9020   -0.6060    0.3341 C   0  0  0  0  0  0
    5.5902   -2.9805    0.0840 C   0  0  0  0  0  0
    4.4709   -4.8267   -1.4706 C   0  0  0  0  0  0
    8.7482    0.4485    3.3316 C   0  0  0  0  0  0
    7.0059   -0.8789    1.8877 C   0  0  0  0  0  0
    7.3526    0.3752    2.7994 C   0  0  0  0  0  0
    9.6767    1.4786    2.9525 C   0  0  0  0  0  0
    1.5347   -0.8917    0.4708 C   0  0  0  0  0  0
   10.9891    1.4704    3.5287 C   0  0  0  0  0  0
    3.3230    0.7296    0.3838 C   0  0  0  0  0  0
    0.5959    0.1255    0.6581 C   0  0  0  0  0  0
    9.1496   -0.5301    4.2482 C   0  0  0  0  0  0
    9.3672    2.5151    2.0204 C   0  0  0  0  0  0
    5.8022   -5.6093   -1.3624 C   0  0  0  0  0  0
    4.2054   -4.5137   -2.9624 C   0  0  0  0  0  0
    3.3310   -5.7213   -0.9275 C   0  0  0  0  0  0
    2.3965    1.7532    0.5705 C   0  0  0  0  0  0
   11.3403    0.4562    4.4503 C   0  0  0  0  0  0
    1.0417    1.4563    0.7085 C   0  0  0  0  0  0
   10.4243   -0.5273    4.7976 C   0  0  0  0  0  0
   11.9207    2.4764    3.1680 C   0  0  0  0  0  0
   10.3066    3.4865    1.6884 C   0  0  0  0  0  0
   11.5727    3.4681    2.2579 C   0  0  0  0  0  0
   -1.7316    0.7330    0.9615 C   0  0  0  0  0  0
   -3.1080    0.0594    1.0408 C   0  0  0  0  0  0
   -5.5576    0.4767    1.2776 C   0  0  0  0  0  0
   -6.1813    0.0193   -0.0579 C   0  0  0  0  0  0
   -6.4334    0.6875   -1.8679 H   0  0  0  0  0  0
    5.1540   -0.0627    1.7308 H   0  0  0  0  0  0
   -3.9791    1.8835    1.2439 H   0  0  0  0  0  0
    6.5639   -3.4248    0.2256 H   0  0  0  0  0  0
    1.1886   -1.9153    0.4392 H   0  0  0  0  0  0
    4.3626    0.9932    0.2591 H   0  0  0  0  0  0
    8.4662   -1.3121    4.5491 H   0  0  0  0  0  0
    8.3934    2.5567    1.5560 H   0  0  0  0  0  0
    5.7702   -6.5415   -1.9283 H   0  0  0  0  0  0
    6.0335   -5.8658   -0.3275 H   0  0  0  0  0  0
    6.6422   -5.0268   -1.7442 H   0  0  0  0  0  0
    4.9824   -3.8702   -3.3780 H   0  0  0  0  0  0
    3.2553   -3.9966   -3.1043 H   0  0  0  0  0  0
    4.1740   -5.4216   -3.5663 H   0  0  0  0  0  0
    3.2702   -6.6688   -1.4648 H   0  0  0  0  0  0
    2.3581   -5.2356   -1.0165 H   0  0  0  0  0  0
    3.4757   -5.9520    0.1290 H   0  0  0  0  0  0
    2.7286    2.7805    0.6036 H   0  0  0  0  0  0
   12.3295    0.4485    4.8851 H   0  0  0  0  0  0
    0.3514    2.2736    0.8515 H   0  0  0  0  0  0
   10.7048   -1.2962    5.5024 H   0  0  0  0  0  0
   12.9093    2.4694    3.6043 H   0  0  0  0  0  0
   10.0490    4.2613    0.9813 H   0  0  0  0  0  0
   12.2919    4.2287    1.9911 H   0  0  0  0  0  0
   -1.5537    1.2831    1.8875 H   0  0  0  0  0  0
   -1.7286    1.4268    0.1185 H   0  0  0  0  0  0
   -5.6491   -0.3273    2.0104 H   0  0  0  0  0  0
   -6.1427    1.2994    1.6897 H   0  0  0  0  0  0
   -7.2267   -0.2627    0.0699 H   0  0  0  0  0  0
   -5.6460   -0.8470   -0.4475 H   0  0  0  0  0  0
  1 16  2  0  0  0
  2 17  2  0  0  0
  3 22  1  0  0  0
  3 35  1  0  0  0
  4 36  2  0  0  0
  5 38  1  0  0  0
  5 39  1  0  0  0
  6  7  1  0  0  0
  6 10  1  0  0  0
  6 12  1  0  0  0
  7 11  2  0  0  0
  8 10  1  0  0  0
  8 16  1  0  0  0
  8 40  1  0  0  0
  9 36  1  0  0  0
  9 37  1  0  0  0
  9 41  1  0  0  0
 10 13  2  0  0  0
 11 13  1  0  0  0
 11 14  1  0  0  0
 12 19  2  0  0  0
 12 21  1  0  0  0
 13 42  1  0  0  0
 14 25  1  0  0  0
 14 26  1  0  0  0
 14 27  1  0  0  0
 15 17  1  0  0  0
 15 18  1  0  0  0
 15 23  2  0  0  0
 16 17  1  0  0  0
 18 20  2  0  0  0
 18 24  1  0  0  0
 19 22  1  0  0  0
 19 43  1  0  0  0
 20 29  1  0  0  0
 20 32  1  0  0  0
 21 28  2  0  0  0
 21 44  1  0  0  0
 22 30  2  0  0  0
 23 31  1  0  0  0
 23 45  1  0  0  0
 24 33  2  0  0  0
 24 46  1  0  0  0
 25 47  1  0  0  0
 25 48  1  0  0  0
 25 49  1  0  0  0
 26 50  1  0  0  0
 26 51  1  0  0  0
 26 52  1  0  0  0
 27 53  1  0  0  0
 27 54  1  0  0  0
 27 55  1  0  0  0
 28 30  1  0  0  0
 28 56  1  0  0  0
 29 31  2  0  0  0
 29 57  1  0  0  0
 30 58  1  0  0  0
 31 59  1  0  0  0
 32 34  2  0  0  0
 32 60  1  0  0  0
 33 34  1  0  0  0
 33 61  1  0  0  0
 34 62  1  0  0  0
 35 36  1  0  0  0
 35 63  1  0  0  0
 35 64  1  0  0  0
 37 38  1  0  0  0
 37 65  1  0  0  0
 37 66  1  0  0  0
 38 67  1  0  0  0
 38 68  1  0  0  0
M  END
> <chembl_id>
CHEMBL1998680

> <chembl_pref_name>
None

> <s_m_source_file>
sdf/inactives_sanitized.sdf

> <i_m_source_file_index>
44

> <i_lp_mmshare_version>
49012

> <i_m_ct_stereo_status>
1

> <i_f3d_flags>
0

> <s_epik_input>
W2NIXTFbY0hdW2NIXVtjSF1jKGMxMilbY0hdW2NIXVtjSF1jMkMoPU8pQyg9TylbTkhdYzNbY0hdYyhDKFtDSDNdKShbQ0gzXSlbQ0gzXSlubjMtYzRbY0hdYyhbY0hdW2NIXVtjSF00KU9bQ0gyXUMoPU8pW05IXVtDSDJdW0NIMl1bT0hd

> <s_epik_cmdline>
J2VwaWtfcHl0aG9uJywgJy1waHQnLCAnMC41JywgJy1waCcsICc3LjUnLCAnLW50JywgJy1tYScsICcyMDAnLCAnLWltYWUnLCAnPGluZmlsZS5tYWU+JywgJy1vbWFlJywgJzxvdXRmaWxlLm1hZT4n

> <r_lp_tautomer_probability>
1

> <r_epik_Ionization_Penalty>
  0.0000

> <r_epik_Ionization_Penalty_Charging>
  0.0000

> <r_epik_Ionization_Penalty_Neutral>
  0.0000

> <r_epik_State_Penalty>
 -0.0000

> <r_epik_Charging_Adjusted_Penalty>
0

> <i_epik_Tot_Q>
0

> <i_epik_Tot_abs_Q>
0

> <s_lp_Force_Field>
OPLS3e

> <r_lp_Energy>
56.765861

> <b_lp_Chiralities_Consistent>
1

> <s_lp_Variant>
sdf/inactives_sanitized.sdf:44-1

$$$$
sdf/inactives_sanitized.sdf:45
                    3D
 Schrodinger Suite 2020-1.
 45 47  0  0  1  0            999 V2000
    6.7052    1.4921    0.4711 O   0  0  0  0  0  0
   -1.9159    1.1191   -0.3290 N   0  0  0  0  0  0
   -0.3490    2.8751    0.2608 N   0  0  0  0  0  0
   -4.2133    1.8824   -0.5616 N   0  0  0  0  0  0
    0.3282    0.6013   -0.0400 N   0  0  0  0  0  0
    6.5788   -0.7269    0.8956 N   0  0  0  0  0  0
   -2.6670    3.4327   -0.0193 C   0  0  0  0  0  0
   -2.8697    2.0562   -0.3104 C   0  0  0  0  0  0
   -1.3419    3.8049    0.2663 C   0  0  0  0  0  0
   -0.6710    1.5876   -0.0409 C   0  0  0  0  0  0
   -3.9466    4.0747   -0.1059 C   0  0  0  0  0  0
    1.7266    0.6260    0.1161 C   0  0  0  0  0  0
   -4.8598    3.0904   -0.4397 C   0  0  0  0  0  0
   -0.9102    5.2196    0.6189 C   0  0  0  0  0  0
    4.5235    0.5048    0.4295 C   0  0  0  0  0  0
    2.5012    1.7874    0.0184 C   0  0  0  0  0  0
    2.3593   -0.5945    0.3542 C   0  0  0  0  0  0
    3.8830    1.7256    0.1765 C   0  0  0  0  0  0
    3.7408   -0.6577    0.5131 C   0  0  0  0  0  0
    6.0300    0.4678    0.5984 C   0  0  0  0  0  0
   -1.1334    5.5508    2.1010 C   0  0  0  0  0  0
    8.0041   -0.9711    1.1097 C   0  0  0  0  0  0
    8.5149   -0.4997    2.4850 C   0  0  0  0  0  0
    9.9993   -0.8157    2.7109 C   0  0  0  0  0  0
   -4.6918    1.0259   -0.8002 H   0  0  0  0  0  0
   -0.0385   -0.3246   -0.2039 H   0  0  0  0  0  0
    5.9706   -1.5284    0.9765 H   0  0  0  0  0  0
   -4.1792    5.1174    0.0529 H   0  0  0  0  0  0
   -5.9265    3.1449   -0.6024 H   0  0  0  0  0  0
    0.1431    5.3636    0.3699 H   0  0  0  0  0  0
   -1.4643    5.9209   -0.0063 H   0  0  0  0  0  0
    2.0635    2.7487   -0.1951 H   0  0  0  0  0  0
    1.7819   -1.5056    0.4230 H   0  0  0  0  0  0
    4.4489    2.6429    0.0953 H   0  0  0  0  0  0
    4.1854   -1.6242    0.7001 H   0  0  0  0  0  0
   -0.8262    6.5736    2.3207 H   0  0  0  0  0  0
   -0.5571    4.8864    2.7460 H   0  0  0  0  0  0
   -2.1846    5.4550    2.3753 H   0  0  0  0  0  0
    8.1845   -2.0417    1.0077 H   0  0  0  0  0  0
    8.5973   -0.5207    0.3110 H   0  0  0  0  0  0
    8.3648    0.5759    2.5863 H   0  0  0  0  0  0
    7.9266   -0.9683    3.2751 H   0  0  0  0  0  0
   10.3263   -0.4666    3.6907 H   0  0  0  0  0  0
   10.6252   -0.3301    1.9617 H   0  0  0  0  0  0
   10.1883   -1.8885    2.6621 H   0  0  0  0  0  0
  1 20  2  0  0  0
  2  8  2  0  0  0
  2 10  1  0  0  0
  3  9  1  0  0  0
  3 10  2  0  0  0
  4  8  1  0  0  0
  4 13  1  0  0  0
  4 25  1  0  0  0
  5 10  1  0  0  0
  5 12  1  0  0  0
  5 26  1  0  0  0
  6 20  1  0  0  0
  6 22  1  0  0  0
  6 27  1  0  0  0
  7  8  1  0  0  0
  7  9  2  0  0  0
  7 11  1  0  0  0
  9 14  1  0  0  0
 11 13  2  0  0  0
 11 28  1  0  0  0
 12 16  2  0  0  0
 12 17  1  0  0  0
 13 29  1  0  0  0
 14 21  1  0  0  0
 14 30  1  0  0  0
 14 31  1  0  0  0
 15 18  2  0  0  0
 15 19  1  0  0  0
 15 20  1  0  0  0
 16 18  1  0  0  0
 16 32  1  0  0  0
 17 19  2  0  0  0
 17 33  1  0  0  0
 18 34  1  0  0  0
 19 35  1  0  0  0
 21 36  1  0  0  0
 21 37  1  0  0  0
 21 38  1  0  0  0
 22 23  1  0  0  0
 22 39  1  0  0  0
 22 40  1  0  0  0
 23 24  1  0  0  0
 23 41  1  0  0  0
 23 42  1  0  0  0
 24 43  1  0  0  0
 24 44  1  0  0  0
 24 45  1  0  0  0
M  END
> <chembl_id>
CHEMBL1997007

> <chembl_pref_name>
None

> <s_m_source_file>
sdf/inactives_sanitized.sdf

> <i_m_source_file_index>
45

> <i_lp_mmshare_version>
49012

> <i_m_ct_stereo_status>
1

> <i_f3d_flags>
0

> <s_epik_input>
W0NIM11bQ0gyXVtDSDJdW05IXUMoPU8pYyhbY0hdW2NIXTEpW2NIXVtjSF1jMVtOSF1jKG5jMltDSDJdW0NIM10pbmMoYzIzKVtuSF1bY0hdW2NIXTM=

> <s_epik_cmdline>
J2VwaWtfcHl0aG9uJywgJy1waHQnLCAnMC41JywgJy1waCcsICc3LjUnLCAnLW50JywgJy1tYScsICcyMDAnLCAnLWltYWUnLCAnPGluZmlsZS5tYWU+JywgJy1vbWFlJywgJzxvdXRmaWxlLm1hZT4n

> <r_lp_tautomer_probability>
1

> <r_epik_Ionization_Penalty>
  0.0000

> <r_epik_Ionization_Penalty_Charging>
  0.0000

> <r_epik_Ionization_Penalty_Neutral>
  0.0000

> <r_epik_State_Penalty>
 -0.0000

> <r_epik_Charging_Adjusted_Penalty>
0

> <i_epik_Tot_Q>
0

> <i_epik_Tot_abs_Q>
0

> <s_lp_Force_Field>
OPLS3e

> <r_lp_Energy>
21.753336

> <b_lp_Chiralities_Consistent>
1

> <s_lp_Variant>
sdf/inactives_sanitized.sdf:45-1

$$$$
sdf/inactives_sanitized.sdf:46
                    3D
 Schrodinger Suite 2020-1.
 38 40  0  0  1  0            999 V2000
   -3.1165    5.9977   -0.0718 F   0  0  0  0  0  0
   -3.2790    5.4434    2.0178 F   0  0  0  0  0  0
   -5.0432    6.0054    0.9049 F   0  0  0  0  0  0
   -0.1297    2.5333    0.2588 O   0  0  0  0  0  0
   -2.8965    3.1793    0.3280 N   0  0  0  0  0  0
    0.2523    0.3155   -0.1918 N   0  0  0  0  0  0
   -1.8271    1.0530   -0.1432 N   0  0  0  0  0  0
    4.4578   -0.2265    0.0685 N   0  0  0  0  0  0
    2.2328   -1.0917   -0.4597 C   0  0  0  0  0  0
    1.6565    0.1736   -0.1038 C   0  0  0  0  0  0
    3.6532   -1.2377   -0.3555 C   0  0  0  0  0  0
   -4.0447    3.9030    0.4249 C   0  0  0  0  0  0
   -3.8740    5.3666    0.8265 C   0  0  0  0  0  0
   -2.9720    1.8640   -0.0282 C   0  0  0  0  0  0
    1.4751   -2.2112   -0.9130 C   0  0  0  0  0  0
   -0.5300    1.3978   -0.0008 C   0  0  0  0  0  0
    2.5182    1.1909    0.3378 C   0  0  0  0  0  0
    4.2594   -2.4692   -0.7005 C   0  0  0  0  0  0
    2.0986   -3.4146   -1.2426 C   0  0  0  0  0  0
   -5.3017    3.3405    0.1728 C   0  0  0  0  0  0
   -4.1989    1.2455   -0.2914 C   0  0  0  0  0  0
    3.8853    0.9511    0.4040 C   0  0  0  0  0  0
    3.4822   -3.5368   -1.1381 C   0  0  0  0  0  0
   -5.3720    1.9948   -0.1891 C   0  0  0  0  0  0
    1.2632   -4.5846   -1.7303 C   0  0  0  0  0  0
   -0.2289   -0.5409   -0.4241 H   0  0  0  0  0  0
   -2.0161    0.0900   -0.3787 H   0  0  0  0  0  0
    0.4015   -2.1304   -1.0033 H   0  0  0  0  0  0
    2.1679    2.1636    0.6411 H   0  0  0  0  0  0
    5.3319   -2.5784   -0.6223 H   0  0  0  0  0  0
   -6.2067    3.9247    0.2534 H   0  0  0  0  0  0
   -4.2506    0.2027   -0.5710 H   0  0  0  0  0  0
    4.5571    1.7262    0.7421 H   0  0  0  0  0  0
    3.9656   -4.4680   -1.3965 H   0  0  0  0  0  0
   -6.3290    1.5356   -0.3884 H   0  0  0  0  0  0
    1.8760   -5.3613   -2.1897 H   0  0  0  0  0  0
    0.5490   -4.2489   -2.4831 H   0  0  0  0  0  0
    0.6970   -5.0180   -0.9056 H   0  0  0  0  0  0
  1 13  1  0  0  0
  2 13  1  0  0  0
  3 13  1  0  0  0
  4 16  2  0  0  0
  5 12  2  0  0  0
  5 14  1  0  0  0
  6 10  1  0  0  0
  6 16  1  0  0  0
  6 26  1  0  0  0
  7 14  1  0  0  0
  7 16  1  0  0  0
  7 27  1  0  0  0
  8 11  2  0  0  0
  8 22  1  0  0  0
  9 10  2  0  0  0
  9 11  1  0  0  0
  9 15  1  0  0  0
 10 17  1  0  0  0
 11 18  1  0  0  0
 12 13  1  0  0  0
 12 20  1  0  0  0
 14 21  2  0  0  0
 15 19  2  0  0  0
 15 28  1  0  0  0
 17 22  2  0  0  0
 17 29  1  0  0  0
 18 23  2  0  0  0
 18 30  1  0  0  0
 19 23  1  0  0  0
 19 25  1  0  0  0
 20 24  2  0  0  0
 20 31  1  0  0  0
 21 24  1  0  0  0
 21 32  1  0  0  0
 22 33  1  0  0  0
 23 34  1  0  0  0
 24 35  1  0  0  0
 25 36  1  0  0  0
 25 37  1  0  0  0
 25 38  1  0  0  0
M  END
> <chembl_id>
CHEMBL1964444

> <chembl_pref_name>
None

> <s_m_source_file>
sdf/inactives_sanitized.sdf

> <i_m_source_file_index>
46

> <i_lp_mmshare_version>
49012

> <i_m_ct_stereo_status>
1

> <i_f3d_flags>
0

> <s_epik_input>
RkMoRikoRiljMW5jKFtjSF1bY0hdW2NIXTEpW05IXUMoPU8pW05IXWMyW2NIXVtjSF1uYyhjMjMpW2NIXVtjSF1jKFtjSF0zKVtDSDNd

> <s_epik_cmdline>
J2VwaWtfcHl0aG9uJywgJy1waHQnLCAnMC41JywgJy1waCcsICc3LjUnLCAnLW50JywgJy1tYScsICcyMDAnLCAnLWltYWUnLCAnPGluZmlsZS5tYWU+JywgJy1vbWFlJywgJzxvdXRmaWxlLm1hZT4n

> <r_epik_Ionization_Penalty>
  0.0396

> <r_epik_Ionization_Penalty_Charging>
  0.0000

> <r_epik_Ionization_Penalty_Neutral>
  0.0396

> <r_epik_State_Penalty>
  0.0332

> <r_epik_Charging_Adjusted_Penalty>
0.0332277546186007

> <i_epik_Tot_Q>
0

> <i_epik_Tot_abs_Q>
0

> <s_lp_Force_Field>
OPLS3e

> <r_lp_Energy>
44.998626

> <b_lp_Chiralities_Consistent>
1

> <s_lp_Variant>
sdf/inactives_sanitized.sdf:46-1

$$$$
sdf/inactives_sanitized.sdf:47
                    3D
 Schrodinger Suite 2020-1.
 31 33  0  0  1  0            999 V2000
   -4.0686   -4.0974   -5.8253 Br  0  0  0  0  0  0
   -3.4579    3.9213   -4.3421 O   0  0  0  0  0  0
    0.1191    0.2009   -0.0146 O   0  0  0  0  0  0
    0.1974    2.4913    0.2188 O   0  0  0  0  0  0
   -3.1063    1.9255   -3.3117 N   0  0  0  0  0  0
   -2.6734    0.1792   -2.0349 N   0  0  0  0  0  0
   -2.6895    2.4292   -2.1406 N   0  0  0  0  0  0
   -3.8914    1.9939   -5.5202 N   0  5  0  0  0  0
   -3.0870    0.5538   -3.2190 C   0  0  0  0  0  0
   -3.5266   -0.1989   -4.4332 C   0  0  0  0  0  0
   -3.9090    0.6058   -5.5324 C   0  0  0  0  0  0
   -3.5093    2.6961   -4.4619 C   0  0  0  0  0  0
   -2.4464    1.3410   -1.4353 C   0  0  0  0  0  0
   -3.5744   -1.5917   -4.5223 C   0  0  0  0  0  0
   -4.3333   -0.0246   -6.7077 C   0  0  0  0  0  0
   -4.0011   -2.1991   -5.7024 C   0  0  0  0  0  0
   -1.9485    1.4162   -0.0049 C   0  0  0  0  0  0
   -4.3792   -1.4165   -6.7928 C   0  0  0  0  0  0
   -0.4216    1.4343    0.0831 C   0  0  0  0  0  0
    1.5290    0.0250    0.0311 C   0  0  0  0  0  0
    1.8613   -1.4696   -0.0204 C   0  0  0  0  0  0
   -3.2822   -2.1997   -3.6784 H   0  0  0  0  0  0
   -4.6325    0.5597   -7.5669 H   0  0  0  0  0  0
   -2.3313    2.3106    0.4880 H   0  0  0  0  0  0
   -2.3184    0.5714    0.5770 H   0  0  0  0  0  0
   -4.7098   -1.8870   -7.7070 H   0  0  0  0  0  0
    1.9938    0.5390   -0.8118 H   0  0  0  0  0  0
    1.9326    0.4620    0.9461 H   0  0  0  0  0  0
    2.9394   -1.6270    0.0133 H   0  0  0  0  0  0
    1.4866   -1.9256   -0.9373 H   0  0  0  0  0  0
    1.4221   -2.0008    0.8246 H   0  0  0  0  0  0
  1 16  1  0  0  0
  2 12  2  0  0  0
  3 19  1  0  0  0
  3 20  1  0  0  0
  4 19  2  0  0  0
  5  7  1  0  0  0
  5  9  1  0  0  0
  5 12  1  0  0  0
  6  9  2  0  0  0
  6 13  1  0  0  0
  7 13  2  0  0  0
  8 11  1  0  0  0
  8 12  1  0  0  0
  9 10  1  0  0  0
 10 11  2  0  0  0
 10 14  1  0  0  0
 11 15  1  0  0  0
 13 17  1  0  0  0
 14 16  2  0  0  0
 14 22  1  0  0  0
 15 18  2  0  0  0
 15 23  1  0  0  0
 16 18  1  0  0  0
 17 19  1  0  0  0
 17 24  1  0  0  0
 17 25  1  0  0  0
 18 26  1  0  0  0
 20 21  1  0  0  0
 20 27  1  0  0  0
 20 28  1  0  0  0
 21 29  1  0  0  0
 21 30  1  0  0  0
 21 31  1  0  0  0
M  CHG  1   8  -1
M  END
> <chembl_id>
CHEMBL1974480

> <chembl_pref_name>
None

> <s_m_source_file>
sdf/inactives_sanitized.sdf

> <i_m_source_file_index>
47

> <i_lp_mmshare_version>
49012

> <i_m_ct_stereo_status>
1

> <i_f3d_flags>
0

> <s_epik_input>
QnJjKFtjSF0xKVtjSF1bY0hdYyhbbkhdYzI9TyljMWMobjIzKW5jKG4zKVtDSDJdQyg9TylPW0NIMl1bQ0gzXQ==

> <s_epik_cmdline>
J2VwaWtfcHl0aG9uJywgJy1waHQnLCAnMC41JywgJy1waCcsICc3LjUnLCAnLW50JywgJy1tYScsICcyMDAnLCAnLWltYWUnLCAnPGluZmlsZS5tYWU+JywgJy1vbWFlJywgJzxvdXRmaWxlLm1hZT4n

> <r_lp_tautomer_probability>
1

> <r_epik_Ionization_Penalty>
  0.0000

> <r_epik_Ionization_Penalty_Charging>
  0.0000

> <r_epik_Ionization_Penalty_Neutral>
  0.0000

> <r_epik_State_Penalty>
 -0.0000

> <r_epik_Charging_Adjusted_Penalty>
6.58054456877378e-13

> <i_epik_Tot_Q>
-1

> <i_epik_Tot_abs_Q>
1

> <s_epik_Chemistry_Notes>
This compound has an ester and may undergo hydrolysis at high or low pH.

> <s_lp_Force_Field>
OPLS3e

> <r_lp_Energy>
34.921568

> <b_lp_Chiralities_Consistent>
1

> <s_lp_Variant>
sdf/inactives_sanitized.sdf:47-1

$$$$
sdf/inactives_sanitized.sdf:48
                    3D
 Schrodinger Suite 2020-1.
 40 43  0  0  1  0            999 V2000
   -3.5557    4.8591   -0.8590 Cl  0  0  0  0  0  0
    2.3218    1.2408   -0.1930 N   0  0  0  0  0  0
    3.6496    1.1236   -0.3077 N   0  0  0  0  0  0
    0.1915    0.4912    0.5353 N   0  0  0  0  0  0
    7.1871   -2.2777   -3.3421 N   0  0  0  0  0  0
    2.1855   -0.8568    1.0454 C   0  0  0  0  0  0
    3.6045   -0.9919    0.9241 C   0  0  0  0  0  0
    1.5873    0.3045    0.4637 C   0  0  0  0  0  0
    4.2811    0.0525    0.2315 C   0  0  0  0  0  0
    1.4580   -1.8726    1.7295 C   0  0  0  0  0  0
    4.2408   -2.1358    1.4806 C   0  0  0  0  0  0
    5.7996    0.0341    0.0503 C   0  0  0  0  0  0
   -0.6551    1.5630    0.1974 C   0  0  0  0  0  0
    6.2799   -0.7809   -1.1443 C   0  0  0  0  0  0
    2.1159   -2.9762    2.2641 C   0  0  0  0  0  0
    3.4935   -3.1072    2.1393 C   0  0  0  0  0  0
   -2.0001    1.2690   -0.0408 C   0  0  0  0  0  0
   -0.2178    2.8927    0.1287 C   0  0  0  0  0  0
    7.1889   -1.8303   -0.9642 C   0  0  0  0  0  0
    5.8358   -0.4853   -2.4395 C   0  0  0  0  0  0
   -2.4476    3.6003   -0.4508 C   0  0  0  0  0  0
   -2.8952    2.2837   -0.3696 C   0  0  0  0  0  0
   -1.1124    3.9081   -0.1997 C   0  0  0  0  0  0
    7.6142   -2.5499   -2.0826 C   0  0  0  0  0  0
    6.3090   -1.2552   -3.5037 C   0  0  0  0  0  0
   -0.3045   -0.3166    0.8826 H   0  0  0  0  0  0
    0.3863   -1.7921    1.8365 H   0  0  0  0  0  0
    5.3087   -2.2640    1.3919 H   0  0  0  0  0  0
    6.1634    1.0540   -0.0908 H   0  0  0  0  0  0
    6.2799   -0.2983    0.9715 H   0  0  0  0  0  0
    1.5513   -3.7394    2.7796 H   0  0  0  0  0  0
    3.9881   -3.9723    2.5567 H   0  0  0  0  0  0
   -2.3584    0.2512    0.0206 H   0  0  0  0  0  0
    0.8046    3.1626    0.3418 H   0  0  0  0  0  0
    7.5598   -2.0844    0.0182 H   0  0  0  0  0  0
    5.1398    0.3212   -2.6193 H   0  0  0  0  0  0
   -3.9319    2.0472   -0.5596 H   0  0  0  0  0  0
   -0.7688    4.9308   -0.2527 H   0  0  0  0  0  0
    8.3153   -3.3648   -1.9782 H   0  0  0  0  0  0
    5.9839   -1.0550   -4.5140 H   0  0  0  0  0  0
  1 21  1  0  0  0
  2  3  2  0  0  0
  2  8  1  0  0  0
  3  9  1  0  0  0
  4  8  1  0  0  0
  4 13  1  0  0  0
  4 26  1  0  0  0
  5 24  2  0  0  0
  5 25  1  0  0  0
  6  7  1  0  0  0
  6  8  2  0  0  0
  6 10  1  0  0  0
  7  9  2  0  0  0
  7 11  1  0  0  0
  9 12  1  0  0  0
 10 15  2  0  0  0
 10 27  1  0  0  0
 11 16  2  0  0  0
 11 28  1  0  0  0
 12 14  1  0  0  0
 12 29  1  0  0  0
 12 30  1  0  0  0
 13 17  2  0  0  0
 13 18  1  0  0  0
 14 19  2  0  0  0
 14 20  1  0  0  0
 15 16  1  0  0  0
 15 31  1  0  0  0
 16 32  1  0  0  0
 17 22  1  0  0  0
 17 33  1  0  0  0
 18 23  2  0  0  0
 18 34  1  0  0  0
 19 24  1  0  0  0
 19 35  1  0  0  0
 20 25  2  0  0  0
 20 36  1  0  0  0
 21 22  2  0  0  0
 21 23  1  0  0  0
 22 37  1  0  0  0
 23 38  1  0  0  0
 24 39  1  0  0  0
 25 40  1  0  0  0
M  END
> <chembl_id>
CHEMBL101253

> <chembl_pref_name>
VATALANIB

> <s_m_source_file>
sdf/inactives_sanitized.sdf

> <i_m_source_file_index>
48

> <i_lp_mmshare_version>
49012

> <i_m_ct_stereo_status>
1

> <i_f3d_flags>
0

> <s_epik_input>
W2NIXTFbY0hdYyhDbClbY0hdW2NIXWMxW05IXWMybm5jKGMoYzIzKVtjSF1bY0hdW2NIXVtjSF0zKVtDSDJdYzRbY0hdW2NIXW5bY0hdW2NIXTQ=

> <s_epik_cmdline>
J2VwaWtfcHl0aG9uJywgJy1waHQnLCAnMC41JywgJy1waCcsICc3LjUnLCAnLW50JywgJy1tYScsICcyMDAnLCAnLWltYWUnLCAnPGluZmlsZS5tYWU+JywgJy1vbWFlJywgJzxvdXRmaWxlLm1hZT4n

> <r_epik_Ionization_Penalty>
  0.0153

> <r_epik_Ionization_Penalty_Charging>
  0.0000

> <r_epik_Ionization_Penalty_Neutral>
  0.0153

> <r_epik_State_Penalty>
  0.0083

> <r_epik_Charging_Adjusted_Penalty>
0.0083302720538204

> <i_epik_Tot_Q>
0

> <i_epik_Tot_abs_Q>
0

> <s_lp_Force_Field>
OPLS3e

> <r_lp_Energy>
46.538634

> <b_lp_Chiralities_Consistent>
1

> <s_lp_Variant>
sdf/inactives_sanitized.sdf:48-1

$$$$
sdf/inactives_sanitized.sdf:49
                    3D
 Schrodinger Suite 2020-1.
 46 48  0  0  1  0            999 V2000
   -3.9869    4.3831   -0.8256 S   0  0  0  0  0  0
    2.0688    6.0459   -3.3309 F   0  0  0  0  0  0
    0.6777    7.0754   -2.0522 F   0  0  0  0  0  0
    0.0011    6.2165   -3.9049 F   0  0  0  0  0  0
    6.2246   -1.4930    0.3966 O   0  0  0  0  0  0
   -2.0692    1.2895    0.6323 N   0  0  0  0  0  0
   -0.3432    2.5641   -0.4778 N   0  0  0  0  0  0
   -0.8320    4.6229   -1.6030 N   0  0  0  0  0  0
    0.1158    0.5046    0.6386 N   0  0  0  0  0  0
    6.5749    0.7208    0.0810 N   0  0  0  0  0  0
   -2.5931    3.3579   -0.4971 C   0  0  0  0  0  0
   -2.9642    2.2124    0.2627 C   0  0  0  0  0  0
   -1.2453    3.5049   -0.8603 C   0  0  0  0  0  0
   -0.7846    1.5077    0.2501 C   0  0  0  0  0  0
   -4.3523    2.1790    0.5635 C   0  0  0  0  0  0
   -5.0180    3.2710    0.0463 C   0  0  0  0  0  0
    1.5118    0.3607    0.5371 C   0  0  0  0  0  0
    0.5222    4.7056   -2.1462 C   0  0  0  0  0  0
    0.8193    6.0303   -2.8683 C   0  0  0  0  0  0
    4.2891   -0.0813    0.3770 C   0  0  0  0  0  0
    2.0356   -0.9204    0.7119 C   0  0  0  0  0  0
    2.3854    1.4279    0.3001 C   0  0  0  0  0  0
    3.4075   -1.1414    0.6287 C   0  0  0  0  0  0
    3.7576    1.2087    0.2173 C   0  0  0  0  0  0
    5.7793   -0.3480    0.2857 C   0  0  0  0  0  0
    8.0316    0.6819   -0.0345 C   0  0  0  0  0  0
    8.7585    0.5121    1.3134 C   0  0  0  0  0  0
   10.2866    0.5563    1.1767 C   0  0  0  0  0  0
   -1.5535    5.1607   -2.0614 H   0  0  0  0  0  0
   -0.3372   -0.2696    1.1011 H   0  0  0  0  0  0
    6.1440    1.6293   -0.0088 H   0  0  0  0  0  0
   -4.8282    1.3924    1.1300 H   0  0  0  0  0  0
   -6.0734    3.4854    0.1319 H   0  0  0  0  0  0
    1.2464    4.5393   -1.3473 H   0  0  0  0  0  0
    0.6659    3.8718   -2.8351 H   0  0  0  0  0  0
    1.3809   -1.7582    0.9062 H   0  0  0  0  0  0
    2.0299    2.4399    0.1922 H   0  0  0  0  0  0
    3.7741   -2.1494    0.7633 H   0  0  0  0  0  0
    4.3943    2.0612    0.0301 H   0  0  0  0  0  0
    8.3438   -0.0958   -0.7348 H   0  0  0  0  0  0
    8.3568    1.6118   -0.5028 H   0  0  0  0  0  0
    8.4391    1.2939    2.0042 H   0  0  0  0  0  0
    8.4732   -0.4370    1.7695 H   0  0  0  0  0  0
   10.7681    0.4185    2.1453 H   0  0  0  0  0  0
   10.6205    1.5135    0.7744 H   0  0  0  0  0  0
   10.6475   -0.2306    0.5137 H   0  0  0  0  0  0
  1 11  1  0  0  0
  1 16  1  0  0  0
  2 19  1  0  0  0
  3 19  1  0  0  0
  4 19  1  0  0  0
  5 25  2  0  0  0
  6 12  1  0  0  0
  6 14  2  0  0  0
  7 13  2  0  0  0
  7 14  1  0  0  0
  8 13  1  0  0  0
  8 18  1  0  0  0
  8 29  1  0  0  0
  9 14  1  0  0  0
  9 17  1  0  0  0
  9 30  1  0  0  0
 10 25  1  0  0  0
 10 26  1  0  0  0
 10 31  1  0  0  0
 11 12  2  0  0  0
 11 13  1  0  0  0
 12 15  1  0  0  0
 15 16  2  0  0  0
 15 32  1  0  0  0
 16 33  1  0  0  0
 17 21  2  0  0  0
 17 22  1  0  0  0
 18 19  1  0  0  0
 18 34  1  0  0  0
 18 35  1  0  0  0
 20 23  2  0  0  0
 20 24  1  0  0  0
 20 25  1  0  0  0
 21 23  1  0  0  0
 21 36  1  0  0  0
 22 24  2  0  0  0
 22 37  1  0  0  0
 23 38  1  0  0  0
 24 39  1  0  0  0
 26 27  1  0  0  0
 26 40  1  0  0  0
 26 41  1  0  0  0
 27 28  1  0  0  0
 27 42  1  0  0  0
 27 43  1  0  0  0
 28 44  1  0  0  0
 28 45  1  0  0  0
 28 46  1  0  0  0
M  END
> <chembl_id>
CHEMBL2007559

> <chembl_pref_name>
None

> <s_m_source_file>
sdf/inactives_sanitized.sdf

> <i_m_source_file_index>
49

> <i_lp_mmshare_version>
49012

> <i_m_ct_stereo_status>
1

> <i_f3d_flags>
0

> <s_epik_input>
RkMoRikoRilbQ0gyXVtOSF1jMW5jKG5jKGMxMilbY0hdW2NIXXMyKVtOSF1jM1tjSF1bY0hdYyhbY0hdW2NIXTMpQyg9TylbTkhdW0NIMl1bQ0gyXVtDSDNd

> <s_epik_cmdline>
J2VwaWtfcHl0aG9uJywgJy1waHQnLCAnMC41JywgJy1waCcsICc3LjUnLCAnLW50JywgJy1tYScsICcyMDAnLCAnLWltYWUnLCAnPGluZmlsZS5tYWU+JywgJy1vbWFlJywgJzxvdXRmaWxlLm1hZT4n

> <r_lp_tautomer_probability>
1

> <r_epik_Ionization_Penalty>
  0.0000

> <r_epik_Ionization_Penalty_Charging>
  0.0000

> <r_epik_Ionization_Penalty_Neutral>
  0.0000

> <r_epik_State_Penalty>
 -0.0000

> <r_epik_Charging_Adjusted_Penalty>
0

> <i_epik_Tot_Q>
0

> <i_epik_Tot_abs_Q>
0

> <s_lp_Force_Field>
OPLS3e

> <r_lp_Energy>
8.601908

> <b_lp_Chiralities_Consistent>
1

> <s_lp_Variant>
sdf/inactives_sanitized.sdf:49-1

$$$$
sdf/inactives_sanitized.sdf:50
                    3D
 Schrodinger Suite 2020-1.
 44 46  0  0  1  0            999 V2000
   -2.8916   -1.0555   -0.0408 S   0  0  0  0  0  0
   -0.4466    1.8819   -0.8136 O   0  0  0  0  0  0
    1.3171   -1.0323   -4.9169 O   0  0  0  0  0  0
   -4.5253    0.9198    0.0086 N   0  0  0  0  0  0
   -0.0194   -0.1466    0.1225 N   0  0  0  0  0  0
   -8.0341   -2.8549    0.3870 N   0  0  0  0  0  0
   -2.2510    0.5722   -0.1193 C   0  0  0  0  0  0
   -4.4947   -0.3911    0.0541 C   0  0  0  0  0  0
   -3.3292    1.4721   -0.0948 C   0  0  0  0  0  0
   -0.8415    0.8368   -0.2958 C   0  0  0  0  0  0
   -5.7167   -1.2573    0.1696 C   0  0  0  0  0  0
    1.4466   -0.1410    0.0289 C   0  0  2  0  0  0
    2.0104   -0.0095   -1.3928 C   0  0  0  0  0  0
   -6.9948   -0.6776    0.2269 C   0  0  0  0  0  0
   -5.6288   -2.6578    0.2243 C   0  0  0  0  0  0
    1.8844   -0.4713   -3.7889 C   0  0  0  0  0  0
    1.3750   -0.6137   -2.4868 C   0  0  0  0  0  0
   -3.3285    2.9883   -0.1592 C   0  0  0  0  0  0
    3.1656    0.7477   -1.6108 C   0  0  0  0  0  0
    3.0423    0.2863   -3.9768 C   0  0  0  0  0  0
    0.1238   -1.7972   -4.7849 C   0  0  0  0  0  0
   -8.1159   -1.5024    0.3345 C   0  0  0  0  0  0
   -6.7990   -3.4120    0.3313 C   0  0  0  0  0  0
    3.6809    0.8933   -2.8969 C   0  0  0  0  0  0
    2.0241   -1.3851    0.7243 C   0  0  0  0  0  0
   -0.1863   -2.1524   -5.7675 H   0  0  0  0  0  0
   -0.6923   -1.1984   -4.3777 H   0  0  0  0  0  0
    0.2773   -2.6720   -4.1511 H   0  0  0  0  0  0
   -0.4141   -0.8582    0.7199 H   0  0  0  0  0  0
    1.7786    0.7273    0.6033 H   0  0  0  0  0  0
   -7.1257    0.3941    0.1890 H   0  0  0  0  0  0
   -4.6773   -3.1666    0.1858 H   0  0  0  0  0  0
    0.4826   -1.1942   -2.3100 H   0  0  0  0  0  0
   -2.3406    3.4193   -0.0014 H   0  0  0  0  0  0
   -3.9749    3.4306    0.6002 H   0  0  0  0  0  0
   -3.6801    3.3478   -1.1267 H   0  0  0  0  0  0
    3.6679    1.2263   -0.7826 H   0  0  0  0  0  0
    3.4493    0.4074   -4.9701 H   0  0  0  0  0  0
   -9.1082   -1.0783    0.3808 H   0  0  0  0  0  0
   -6.7565   -4.4904    0.3746 H   0  0  0  0  0  0
    4.5742    1.4785   -3.0575 H   0  0  0  0  0  0
    3.1137   -1.3481    0.7609 H   0  0  0  0  0  0
    1.7402   -2.3012    0.2046 H   0  0  0  0  0  0
    1.6693   -1.4661    1.7526 H   0  0  0  0  0  0
  1  7  1  0  0  0
  1  8  1  0  0  0
  2 10  2  0  0  0
  3 16  1  0  0  0
  3 21  1  0  0  0
  4  8  2  0  0  0
  4  9  1  0  0  0
  5 10  1  0  0  0
  5 12  1  0  0  0
  5 29  1  0  0  0
  6 22  2  0  0  0
  6 23  1  0  0  0
  7  9  2  0  0  0
  7 10  1  0  0  0
  8 11  1  0  0  0
  9 18  1  0  0  0
 11 14  2  0  0  0
 11 15  1  0  0  0
 12 13  1  0  0  0
 12 25  1  0  0  0
 12 30  1  0  0  0
 13 17  1  0  0  0
 13 19  2  0  0  0
 14 22  1  0  0  0
 14 31  1  0  0  0
 15 23  2  0  0  0
 15 32  1  0  0  0
 16 17  2  0  0  0
 16 20  1  0  0  0
 17 33  1  0  0  0
 18 34  1  0  0  0
 18 35  1  0  0  0
 18 36  1  0  0  0
 19 24  1  0  0  0
 19 37  1  0  0  0
 20 24  2  0  0  0
 20 38  1  0  0  0
 21 26  1  0  0  0
 21 27  1  0  0  0
 21 28  1  0  0  0
 22 39  1  0  0  0
 23 40  1  0  0  0
 24 41  1  0  0  0
 25 42  1  0  0  0
 25 43  1  0  0  0
 25 44  1  0  0  0
M  ISO  3  26   2  27   2  28   2
M  END
> <chembl_id>
CHEMBL1998110

> <chembl_pref_name>
None

> <s_m_source_file>
sdf/inactives_sanitized.sdf

> <i_m_source_file_index>
50

> <i_lp_mmshare_version>
49012

> <i_m_ct_stereo_status>
1

> <i_f3d_flags>
0

> <s_epik_input>
W2NIXTFbY0hdbltjSF1bY0hdYzEtYyhuYzJbQ0gzXSlzYzJDKD1PKVtOSF1bQ0BASF0oW0NIM10pYzNbY0hdYyhPQyhbMkhdKShbMkhdKVsySF0pW2NIXVtjSF1bY0hdMw==

> <s_epik_cmdline>
J2VwaWtfcHl0aG9uJywgJy1waHQnLCAnMC41JywgJy1waCcsICc3LjUnLCAnLW50JywgJy1tYScsICcyMDAnLCAnLWltYWUnLCAnPGluZmlsZS5tYWU+JywgJy1vbWFlJywgJzxvdXRmaWxlLm1hZT4n

> <r_lp_tautomer_probability>
1

> <r_epik_Ionization_Penalty>
  0.0001

> <r_epik_Ionization_Penalty_Charging>
  0.0000

> <r_epik_Ionization_Penalty_Neutral>
  0.0001

> <r_epik_State_Penalty>
 -0.0000

> <r_epik_Charging_Adjusted_Penalty>
0

> <i_epik_Tot_Q>
0

> <i_epik_Tot_abs_Q>
0

> <s_lp_Force_Field>
OPLS3e

> <r_lp_Energy>
32.748571

> <b_lp_Chiralities_Consistent>
1

> <s_lp_Variant>
sdf/inactives_sanitized.sdf:50-1

$$$$
sdf/inactives_sanitized.sdf:51
                    3D
 Schrodinger Suite 2020-1.
 55 58  0  0  1  0            999 V2000
    5.6553   -0.8542    1.2927 O   0  0  0  0  0  0
    5.4727    1.4141   -0.1787 O   0  0  0  0  0  0
    3.5003   -2.3919    1.8686 O   0  0  0  0  0  0
   -3.1324    2.8214   -2.4050 N   0  0  0  0  0  0
   -1.2309    1.7442   -1.4867 N   0  0  0  0  0  0
    0.6187    0.6565   -0.5765 N   0  0  0  0  0  0
   -1.2232    4.1260   -1.8320 N   0  0  0  0  0  0
    0.7105    3.0325   -0.8903 N   0  0  0  0  0  0
   -3.6834    3.7000   -3.3687 C   0  0  0  0  0  0
   -1.8273    2.9032   -1.8960 C   0  0  0  0  0  0
   -5.0826    3.9184   -3.4420 C   0  0  0  0  0  0
    1.9074    0.3245   -0.1227 C   0  0  0  0  0  0
    4.4244   -0.4729    0.8147 C   0  0  0  0  0  0
    0.0332    1.8579   -1.0027 C   0  0  0  0  0  0
    4.3106    0.7014    0.0591 C   0  0  0  0  0  0
    3.2985   -1.2521    1.1110 C   0  0  0  0  0  0
   -4.0436    1.8670   -1.7238 C   0  0  0  0  0  0
    3.0456    1.0838   -0.4144 C   0  0  0  0  0  0
    2.0456   -0.8425    0.6291 C   0  0  0  0  0  0
   -2.8625    4.3536   -4.3062 C   0  0  0  0  0  0
   -6.0189    3.2142   -2.4761 C   0  0  0  0  0  0
   -5.5977    4.7761   -4.4210 C   0  0  0  0  0  0
   -5.4809    1.8040   -2.2651 C   0  0  0  0  0  0
   -4.7641    5.4266   -5.3283 C   0  0  0  0  0  0
   -3.3911    5.2073   -5.2697 C   0  0  0  0  0  0
    0.0337    4.1254   -1.3220 C   0  0  0  0  0  0
   -5.3549    6.3439   -6.3833 C   0  0  0  0  0  0
    6.3814   -1.7004    0.4114 C   0  0  0  0  0  0
    5.4107    2.6281   -0.9193 C   0  0  0  0  0  0
    2.3920   -3.2254    2.1889 C   0  0  0  0  0  0
   -0.0050   -0.1343   -0.6439 H   0  0  0  0  0  0
   -3.6184    0.8658   -1.8060 H   0  0  0  0  0  0
   -4.0691    2.1094   -0.6598 H   0  0  0  0  0  0
    2.9527    1.9674   -1.0233 H   0  0  0  0  0  0
    1.1625   -1.4268    0.8410 H   0  0  0  0  0  0
   -1.7956    4.1890   -4.3191 H   0  0  0  0  0  0
   -6.0463    3.7556   -1.5294 H   0  0  0  0  0  0
   -7.0407    3.1813   -2.8570 H   0  0  0  0  0  0
   -6.6646    4.9394   -4.4742 H   0  0  0  0  0  0
   -5.5167    1.2137   -3.1825 H   0  0  0  0  0  0
   -6.1117    1.2676   -1.5555 H   0  0  0  0  0  0
   -2.7290    5.6899   -5.9740 H   0  0  0  0  0  0
    0.5389    5.0775   -1.2534 H   0  0  0  0  0  0
   -4.6466    6.5484   -7.1873 H   0  0  0  0  0  0
   -5.6695    7.2867   -5.9352 H   0  0  0  0  0  0
   -6.2319    5.8810   -6.8376 H   0  0  0  0  0  0
    7.3342   -1.9667    0.8685 H   0  0  0  0  0  0
    6.5949   -1.2032   -0.5362 H   0  0  0  0  0  0
    5.8407   -2.6260    0.2061 H   0  0  0  0  0  0
    6.4104    3.0558   -0.9927 H   0  0  0  0  0  0
    4.7722    3.3643   -0.4284 H   0  0  0  0  0  0
    5.0488    2.4598   -1.9348 H   0  0  0  0  0  0
    2.7379   -4.0691    2.7860 H   0  0  0  0  0  0
    1.9220   -3.6285    1.2905 H   0  0  0  0  0  0
    1.6446   -2.6903    2.7766 H   0  0  0  0  0  0
  1 13  1  0  0  0
  1 28  1  0  0  0
  2 15  1  0  0  0
  2 29  1  0  0  0
  3 16  1  0  0  0
  3 30  1  0  0  0
  4  9  1  0  0  0
  4 10  1  0  0  0
  4 17  1  0  0  0
  5 10  2  0  0  0
  5 14  1  0  0  0
  6 12  1  0  0  0
  6 14  1  0  0  0
  6 31  1  0  0  0
  7 10  1  0  0  0
  7 26  2  0  0  0
  8 14  2  0  0  0
  8 26  1  0  0  0
  9 11  2  0  0  0
  9 20  1  0  0  0
 11 21  1  0  0  0
 11 22  1  0  0  0
 12 18  2  0  0  0
 12 19  1  0  0  0
 13 15  2  0  0  0
 13 16  1  0  0  0
 15 18  1  0  0  0
 16 19  2  0  0  0
 17 23  1  0  0  0
 17 32  1  0  0  0
 17 33  1  0  0  0
 18 34  1  0  0  0
 19 35  1  0  0  0
 20 25  2  0  0  0
 20 36  1  0  0  0
 21 23  1  0  0  0
 21 37  1  0  0  0
 21 38  1  0  0  0
 22 24  2  0  0  0
 22 39  1  0  0  0
 23 40  1  0  0  0
 23 41  1  0  0  0
 24 25  1  0  0  0
 24 27  1  0  0  0
 25 42  1  0  0  0
 26 43  1  0  0  0
 27 44  1  0  0  0
 27 45  1  0  0  0
 27 46  1  0  0  0
 28 47  1  0  0  0
 28 48  1  0  0  0
 28 49  1  0  0  0
 29 50  1  0  0  0
 29 51  1  0  0  0
 29 52  1  0  0  0
 30 53  1  0  0  0
 30 54  1  0  0  0
 30 55  1  0  0  0
M  END
> <chembl_id>
CHEMBL1992125

> <chembl_pref_name>
None

> <s_m_source_file>
sdf/inactives_sanitized.sdf

> <i_m_source_file_index>
51

> <i_lp_mmshare_version>
49012

> <i_m_ct_stereo_status>
1

> <i_f3d_flags>
0

> <s_epik_input>
W0NIM11PYyhbY0hdMSljKE9bQ0gzXSljKE9bQ0gzXSlbY0hdYzFbTkhdYyhuW2NIXW4yKW5jMk4zW0NIMl1bQ0gyXVtDSDJdYyhjMzQpW2NIXWMoW0NIM10pW2NIXVtjSF00

> <s_epik_cmdline>
J2VwaWtfcHl0aG9uJywgJy1waHQnLCAnMC41JywgJy1waCcsICc3LjUnLCAnLW50JywgJy1tYScsICcyMDAnLCAnLWltYWUnLCAnPGluZmlsZS5tYWU+JywgJy1vbWFlJywgJzxvdXRmaWxlLm1hZT4n

> <r_lp_tautomer_probability>
1

> <r_epik_Ionization_Penalty>
  0.0000

> <r_epik_Ionization_Penalty_Charging>
  0.0000

> <r_epik_Ionization_Penalty_Neutral>
  0.0000

> <r_epik_State_Penalty>
 -0.0000

> <r_epik_Charging_Adjusted_Penalty>
0

> <i_epik_Tot_Q>
0

> <i_epik_Tot_abs_Q>
0

> <s_lp_Force_Field>
OPLS3e

> <r_lp_Energy>
49.284696

> <b_lp_Chiralities_Consistent>
1

> <s_lp_Variant>
sdf/inactives_sanitized.sdf:51-1

$$$$
sdf/inactives_sanitized.sdf:52
                    3D
 Schrodinger Suite 2020-1.
 61 65  0  0  1  0            999 V2000
   14.5725   -2.4316    4.9889 Cl  0  0  0  0  0  0
    0.0017    0.1926   -0.2541 O   0  0  0  0  0  0
   10.3921   -0.6377    2.5744 O   0  0  0  0  0  0
    1.5590   -2.3199   -0.2469 N   0  0  0  0  0  0
    2.5478   -3.2280   -0.2320 N   0  0  0  0  0  0
    4.8840   -3.1944   -0.1514 N   0  0  0  0  0  0
    9.9246   -0.0147    0.4201 N   0  0  0  0  0  0
   12.0360   -0.1852    1.0471 N   0  0  0  0  0  0
   -4.0398    0.1462    1.2413 N   0  0  0  0  0  0
    3.4537   -1.1454   -0.1072 C   0  0  0  0  0  0
    2.0387   -1.0262   -0.1858 C   0  0  0  0  0  0
    4.2440    0.0257   -0.0191 C   0  0  0  0  0  0
    3.6717   -2.5658   -0.1591 C   0  0  0  0  0  0
    1.3806    0.2080   -0.1893 C   0  0  0  0  0  0
    5.7242   -0.0141    0.1094 C   0  0  0  0  0  0
    3.5797    1.2565   -0.0490 C   0  0  0  0  0  0
    2.1934    1.3480   -0.1307 C   0  0  0  0  0  0
    6.5328    0.6595   -0.8107 C   0  0  0  0  0  0
    6.3260   -0.7045    1.1654 C   0  0  0  0  0  0
    8.5174   -0.0467    0.3771 C   0  0  0  0  0  0
    7.9190    0.6377   -0.6826 C   0  0  0  0  0  0
    7.7111   -0.7301    1.2997 C   0  0  0  0  0  0
   -0.7032    1.4285   -0.1788 C   0  0  0  0  0  0
   10.7526   -0.3143    1.4420 C   0  0  0  0  0  0
   -2.2110    1.1499   -0.0839 C   0  0  0  0  0  0
   13.2141   -0.4389    1.7748 C   0  0  0  0  0  0
   13.2804   -1.2430    2.9266 C   0  0  0  0  0  0
   -2.6005    0.3530    1.1777 C   0  0  0  0  0  0
   14.3894    0.1341    1.2775 C   0  0  0  0  0  0
   14.5007   -1.4460    3.5737 C   0  0  0  0  0  0
   15.6073   -0.0699    1.9267 C   0  0  0  0  0  0
   15.6628   -0.8570    3.0758 C   0  0  0  0  0  0
   -4.7360   -0.9028    0.6856 C   0  0  0  0  0  0
   -4.9606    1.0063    1.7945 C   0  0  0  0  0  0
   -6.0900   -0.7214    0.9222 C   0  0  0  0  0  0
   -6.2313    0.4803    1.6199 C   0  0  0  0  0  0
    0.5955   -2.6166   -0.3062 H   0  0  0  0  0  0
    5.7465   -2.6775   -0.2479 H   0  0  0  0  0  0
    4.9545   -4.2016   -0.1766 H   0  0  0  0  0  0
   10.3597    0.3250   -0.4249 H   0  0  0  0  0  0
   12.1870    0.1922    0.1232 H   0  0  0  0  0  0
    4.1523    2.1713    0.0090 H   0  0  0  0  0  0
    1.7547    2.3342   -0.1419 H   0  0  0  0  0  0
    6.0867    1.2003   -1.6329 H   0  0  0  0  0  0
    5.7173   -1.2275    1.8889 H   0  0  0  0  0  0
    8.5223    1.1634   -1.4092 H   0  0  0  0  0  0
    8.1276   -1.2943    2.1188 H   0  0  0  0  0  0
   -0.3877    2.0053    0.6928 H   0  0  0  0  0  0
   -0.4933    2.0277   -1.0665 H   0  0  0  0  0  0
   -2.7428    2.1027   -0.0924 H   0  0  0  0  0  0
   -2.5331    0.6130   -0.9777 H   0  0  0  0  0  0
   12.4055   -1.7304    3.3273 H   0  0  0  0  0  0
   -2.2834    0.8734    2.0828 H   0  0  0  0  0  0
   -2.1075   -0.6203    1.1980 H   0  0  0  0  0  0
   14.3659    0.7471    0.3876 H   0  0  0  0  0  0
   16.5081    0.3822    1.5387 H   0  0  0  0  0  0
   16.6079   -1.0123    3.5755 H   0  0  0  0  0  0
   -4.2082   -1.6928    0.1717 H   0  0  0  0  0  0
   -4.6331    1.9195    2.2696 H   0  0  0  0  0  0
   -6.8881   -1.3821    0.6170 H   0  0  0  0  0  0
   -7.1588    0.9215    1.9543 H   0  0  0  0  0  0
  1 30  1  0  0  0
  2 14  1  0  0  0
  2 23  1  0  0  0
  3 24  2  0  0  0
  4  5  1  0  0  0
  4 11  1  0  0  0
  4 37  1  0  0  0
  5 13  2  0  0  0
  6 13  1  0  0  0
  6 38  1  0  0  0
  6 39  1  0  0  0
  7 20  1  0  0  0
  7 24  1  0  0  0
  7 40  1  0  0  0
  8 24  1  0  0  0
  8 26  1  0  0  0
  8 41  1  0  0  0
  9 28  1  0  0  0
  9 33  1  0  0  0
  9 34  1  0  0  0
 10 11  2  0  0  0
 10 12  1  0  0  0
 10 13  1  0  0  0
 11 14  1  0  0  0
 12 15  1  0  0  0
 12 16  2  0  0  0
 14 17  2  0  0  0
 15 18  2  0  0  0
 15 19  1  0  0  0
 16 17  1  0  0  0
 16 42  1  0  0  0
 17 43  1  0  0  0
 18 21  1  0  0  0
 18 44  1  0  0  0
 19 22  2  0  0  0
 19 45  1  0  0  0
 20 21  2  0  0  0
 20 22  1  0  0  0
 21 46  1  0  0  0
 22 47  1  0  0  0
 23 25  1  0  0  0
 23 48  1  0  0  0
 23 49  1  0  0  0
 25 28  1  0  0  0
 25 50  1  0  0  0
 25 51  1  0  0  0
 26 27  2  0  0  0
 26 29  1  0  0  0
 27 30  1  0  0  0
 27 52  1  0  0  0
 28 53  1  0  0  0
 28 54  1  0  0  0
 29 31  2  0  0  0
 29 55  1  0  0  0
 30 32  2  0  0  0
 31 32  1  0  0  0
 31 56  1  0  0  0
 32 57  1  0  0  0
 33 35  2  0  0  0
 33 58  1  0  0  0
 34 36  2  0  0  0
 34 59  1  0  0  0
 35 36  1  0  0  0
 35 60  1  0  0  0
 36 61  1  0  0  0
M  END
> <chembl_id>
CHEMBL1965387

> <chembl_pref_name>
None

> <s_m_source_file>
sdf/inactives_sanitized.sdf

> <i_m_source_file_index>
52

> <i_lp_mmshare_version>
49012

> <i_m_ct_stereo_status>
1

> <i_f3d_flags>
0

> <s_epik_input>
W2NIXTFbY0hdW2NIXWMoQ2wpW2NIXWMxW05IXUMoPU8pW05IXWMoW2NIXVtjSF0yKVtjSF1bY0hdYzItYzNbY0hdW2NIXWMoYyhjMzQpW25IXW5jNFtOSDJdKU9bQ0gyXVtDSDJdW0NIMl1uNVtjSF1bY0hdW2NIXVtjSF01

> <s_epik_cmdline>
J2VwaWtfcHl0aG9uJywgJy1waHQnLCAnMC41JywgJy1waCcsICc3LjUnLCAnLW50JywgJy1tYScsICcyMDAnLCAnLWltYWUnLCAnPGluZmlsZS5tYWU+JywgJy1vbWFlJywgJzxvdXRmaWxlLm1hZT4n

> <r_lp_tautomer_probability>
1

> <r_epik_Ionization_Penalty>
  0.0001

> <r_epik_Ionization_Penalty_Charging>
  0.0000

> <r_epik_Ionization_Penalty_Neutral>
  0.0001

> <r_epik_State_Penalty>
 -0.0000

> <r_epik_Charging_Adjusted_Penalty>
0

> <i_epik_Tot_Q>
0

> <i_epik_Tot_abs_Q>
0

> <s_lp_Force_Field>
OPLS3e

> <r_lp_Energy>
47.587728

> <b_lp_Chiralities_Consistent>
1

> <s_lp_Variant>
sdf/inactives_sanitized.sdf:52-1

$$$$
sdf/inactives_sanitized.sdf:53
                    3D
 Schrodinger Suite 2020-1.
 53 57  0  0  1  0            999 V2000
    1.9705    0.3932    0.9788 O   0  0  0  0  0  0
   -4.1014    2.0182    1.0821 N   0  0  0  0  0  0
    5.1881    0.8207    2.6354 N   0  0  0  0  0  0
   10.6867   -1.2010   -3.6286 N   0  0  0  0  0  0
   -0.7282   -0.3873   -1.4920 N   0  3  0  0  0  0
   -3.0567    1.9896   -0.9092 C   0  0  0  0  0  0
   -2.0602    1.8444    0.1222 C   0  0  0  0  0  0
   -4.3326    2.0929   -0.2729 C   0  0  0  0  0  0
    6.6278   -0.5141   -0.6103 C   0  0  0  0  0  0
    5.6387   -0.0587    0.4119 C   0  0  0  0  0  0
    8.8298   -0.3167   -1.6792 C   0  0  0  0  0  0
    8.4942   -1.3904   -2.5552 C   0  0  0  0  0  0
    7.8822    0.1023   -0.7142 C   0  0  0  0  0  0
   -2.7588    1.8721    1.3157 C   0  0  0  0  0  0
    6.3223   -1.5653   -1.4839 C   0  0  0  0  0  0
    4.2579   -0.0705    0.1586 C   0  0  0  0  0  0
    3.3424    0.3617    1.1345 C   0  0  0  0  0  0
   -0.5636    1.6826   -0.0695 C   0  0  0  0  0  0
   -3.0044    2.0427   -2.3127 C   0  0  0  0  0  0
    7.2291   -2.0076   -2.4437 C   0  0  0  0  0  0
   -5.5219    2.2398   -0.9953 C   0  0  0  0  0  0
    6.0457    0.4018    1.6724 C   0  0  0  0  0  0
   -0.1212    0.2083   -0.2147 C   0  0  2  0  0  0
   10.1057    0.2936   -1.8098 C   0  0  0  0  0  0
    9.4697   -1.7800   -3.5025 C   0  0  0  0  0  0
    3.8627    0.7935    2.3550 C   0  0  0  0  0  0
   -4.1884    2.1898   -3.0327 C   0  0  0  0  0  0
   -5.4171    2.2850   -2.3856 C   0  0  0  0  0  0
    1.4050    0.0166   -0.2732 C   0  0  0  0  0  0
   10.9819   -0.1808   -2.7870 C   0  0  0  0  0  0
   -4.7821    2.0594    1.8273 H   0  0  0  0  0  0
   -0.3807    0.1034   -2.3035 H   0  0  0  0  0  0
   -1.7343   -0.2993   -1.4669 H   0  0  0  0  0  0
    8.1455    0.9217   -0.0605 H   0  0  0  0  0  0
   -2.4041    1.7955    2.3335 H   0  0  0  0  0  0
    5.3667   -2.0649   -1.4175 H   0  0  0  0  0  0
    3.9055   -0.4084   -0.8039 H   0  0  0  0  0  0
   -0.2277    2.2624   -0.9308 H   0  0  0  0  0  0
   -0.0436    2.1236    0.7824 H   0  0  0  0  0  0
   -2.0612    1.9751   -2.8342 H   0  0  0  0  0  0
    6.9715   -2.8230   -3.1043 H   0  0  0  0  0  0
   -6.4828    2.3168   -0.5079 H   0  0  0  0  0  0
    7.0908    0.4310    1.9438 H   0  0  0  0  0  0
   -0.5530   -0.4096    0.5747 H   0  0  0  0  0  0
   10.3870    1.1104   -1.1609 H   0  0  0  0  0  0
    9.2574   -2.5907   -4.1843 H   0  0  0  0  0  0
    3.2044    1.1351    3.1403 H   0  0  0  0  0  0
   -4.1528    2.2325   -4.1117 H   0  0  0  0  0  0
   -6.3138    2.3997   -2.9776 H   0  0  0  0  0  0
    1.8247    0.6182   -1.0823 H   0  0  0  0  0  0
    1.6438   -1.0289   -0.4796 H   0  0  0  0  0  0
   11.9576    0.2669   -2.9067 H   0  0  0  0  0  0
   -0.4874   -1.3649   -1.5720 H   0  0  0  0  0  0
  1 17  1  0  0  0
  1 29  1  0  0  0
  2  8  1  0  0  0
  2 14  1  0  0  0
  2 31  1  0  0  0
  3 22  2  0  0  0
  3 26  1  0  0  0
  4 25  2  0  0  0
  4 30  1  0  0  0
  5 23  1  0  0  0
  5 32  1  0  0  0
  5 33  1  0  0  0
  5 53  1  0  0  0
  6  7  1  0  0  0
  6  8  2  0  0  0
  6 19  1  0  0  0
  7 14  2  0  0  0
  7 18  1  0  0  0
  8 21  1  0  0  0
  9 10  1  0  0  0
  9 13  2  0  0  0
  9 15  1  0  0  0
 10 16  2  0  0  0
 10 22  1  0  0  0
 11 12  2  0  0  0
 11 13  1  0  0  0
 11 24  1  0  0  0
 12 20  1  0  0  0
 12 25  1  0  0  0
 13 34  1  0  0  0
 14 35  1  0  0  0
 15 20  2  0  0  0
 15 36  1  0  0  0
 16 17  1  0  0  0
 16 37  1  0  0  0
 17 26  2  0  0  0
 18 23  1  0  0  0
 18 38  1  0  0  0
 18 39  1  0  0  0
 19 27  2  0  0  0
 19 40  1  0  0  0
 20 41  1  0  0  0
 21 28  2  0  0  0
 21 42  1  0  0  0
 22 43  1  0  0  0
 23 29  1  0  0  0
 23 44  1  0  0  0
 24 30  2  0  0  0
 24 45  1  0  0  0
 25 46  1  0  0  0
 26 47  1  0  0  0
 27 28  1  0  0  0
 27 48  1  0  0  0
 28 49  1  0  0  0
 29 50  1  0  0  0
 29 51  1  0  0  0
 30 52  1  0  0  0
M  CHG  1   5   1
M  END
> <chembl_id>
CHEMBL1981133

> <chembl_pref_name>
None

> <s_m_source_file>
sdf/inactives_sanitized.sdf

> <i_m_source_file_index>
53

> <i_lp_mmshare_version>
49012

> <i_m_ct_stereo_status>
1

> <i_f3d_flags>
0

> <s_epik_input>
W2NIXTFbY0hdbltjSF1jKGMxMilbY0hdW2NIXWMoW2NIXTIpLWMzW2NIXWMoW2NIXW5bY0hdMylPW0NIMl1bQ0BIXShbTkgyXSlbQ0gyXWM0W2NIXVtuSF1jKGM0NSlbY0hdW2NIXVtjSF1bY0hdNQ==

> <s_epik_cmdline>
J2VwaWtfcHl0aG9uJywgJy1waHQnLCAnMC41JywgJy1waCcsICc3LjUnLCAnLW50JywgJy1tYScsICcyMDAnLCAnLWltYWUnLCAnPGluZmlsZS5tYWU+JywgJy1vbWFlJywgJzxvdXRmaWxlLm1hZT4n

> <r_lp_tautomer_probability>
1

> <r_epik_Ionization_Penalty>
  0.0676

> <r_epik_Ionization_Penalty_Charging>
  0.0588

> <r_epik_Ionization_Penalty_Neutral>
  0.0088

> <r_epik_State_Penalty>
  0.0509

> <r_epik_Charging_Adjusted_Penalty>
0.109691852159949

> <i_epik_Tot_Q>
1

> <i_epik_Tot_abs_Q>
1

> <s_lp_Force_Field>
OPLS3e

> <r_lp_Energy>
51.040645

> <b_lp_Chiralities_Consistent>
1

> <s_lp_Variant>
sdf/inactives_sanitized.sdf:53-1

$$$$
sdf/inactives_sanitized.sdf:54
                    3D
 Schrodinger Suite 2020-1.
 80 84  0  0  1  0            999 V2000
   -4.2721    0.6651    0.5449 O   0  0  0  0  0  0
    6.2561    1.5359   -0.9872 O   0  0  0  0  0  0
   -8.2014   -2.4196   -3.8236 O   0  0  0  0  0  0
   -8.2059   -7.2383   -4.2075 O   0  0  0  0  0  0
   -2.1987    1.5905    0.1672 N   0  0  0  0  0  0
   -3.2914   -1.9115    0.1450 N   0  0  0  0  0  0
    4.2196    1.5311   -2.0262 N   0  0  0  0  0  0
   -4.6025   -1.4268   -1.8023 N   0  0  0  0  0  0
   -7.4713   -4.5617   -4.0747 N   0  0  0  0  0  0
   -0.2258    0.1957   -0.1517 C   0  0  0  0  0  0
    1.2481    0.0455   -0.3237 C   0  0  0  0  0  0
   -2.4511   -0.8088    0.1030 C   0  0  0  0  0  0
    2.0451    0.8784   -1.1507 C   0  0  0  0  0  0
   -3.0710    0.5239    0.2869 C   0  0  0  0  0  0
   -1.1153   -0.9573   -0.0698 C   0  0  0  0  0  0
    3.4460    0.6890   -1.1974 C   0  0  0  0  0  0
   -0.8505    1.3875   -0.0219 C   0  0  0  0  0  0
    1.8721   -0.9901    0.3857 C   0  0  0  0  0  0
   -4.3204   -2.2487   -0.7533 C   0  0  0  0  0  0
    4.0290   -0.3531   -0.4612 C   0  0  0  0  0  0
    3.2446   -1.1894    0.3201 C   0  0  0  0  0  0
    5.5252    1.8712   -1.9219 C   0  0  0  0  0  0
   -6.3070   -2.9828   -2.5460 C   0  0  0  0  0  0
    6.0608    2.7569   -3.0274 C   0  0  0  0  0  0
   -7.4003   -3.3118   -3.5352 C   0  0  0  0  0  0
   -5.0147   -3.4441   -0.5484 C   0  0  0  0  0  0
    1.3950    1.9339   -2.0569 C   0  0  0  0  0  0
   -5.5847   -1.7893   -2.6645 C   0  0  0  0  0  0
   -6.0191   -3.8065   -1.4477 C   0  0  0  0  0  0
    7.1120    4.3934   -5.0782 C   0  0  0  0  0  0
   -2.7418    2.9496    0.2967 C   0  0  0  0  0  0
    7.7234    5.2973   -6.1796 C   0  0  0  0  0  0
    5.4376    2.8218   -4.2822 C   0  0  0  0  0  0
    7.2152    3.5185   -2.8121 C   0  0  0  0  0  0
    5.9553    3.6289   -5.2913 C   0  0  0  0  0  0
    7.7302    4.3254   -3.8222 C   0  0  0  0  0  0
   -8.5834   -4.9353   -4.9707 C   0  0  0  0  0  0
   -6.4327   -5.5998   -3.9363 C   0  0  0  0  0  0
   -9.1962   -6.2240   -4.3723 C   0  0  0  0  0  0
   -7.1347   -6.8438   -3.3534 C   0  0  0  0  0  0
    7.7505    6.7676   -5.6937 C   0  0  0  0  0  0
    6.9298    5.2634   -7.5137 C   0  0  0  0  0  0
    9.1692    4.8359   -6.4891 C   0  0  0  0  0  0
   -3.0511   -2.6718    0.7645 H   0  0  0  0  0  0
    3.7021    1.9742   -2.7708 H   0  0  0  0  0  0
   -0.7055   -1.9501   -0.1947 H   0  0  0  0  0  0
   -0.3143    2.3257   -0.0116 H   0  0  0  0  0  0
    1.2942   -1.6453    1.0213 H   0  0  0  0  0  0
    5.0889   -0.5519   -0.5023 H   0  0  0  0  0  0
    3.7020   -1.9925    0.8789 H   0  0  0  0  0  0
   -4.7864   -4.0842    0.2918 H   0  0  0  0  0  0
    1.9336    2.0551   -2.9969 H   0  0  0  0  0  0
    1.3557    2.9026   -1.5584 H   0  0  0  0  0  0
    0.3899    1.6444   -2.3626 H   0  0  0  0  0  0
   -5.7739   -1.0985   -3.4741 H   0  0  0  0  0  0
   -6.5698   -4.7204   -1.2796 H   0  0  0  0  0  0
   -2.4560    3.5446   -0.5711 H   0  0  0  0  0  0
   -2.3264    3.4312    1.1824 H   0  0  0  0  0  0
   -3.8289    2.9969    0.3747 H   0  0  0  0  0  0
    4.5507    2.2430   -4.4973 H   0  0  0  0  0  0
    7.7259    3.4944   -1.8596 H   0  0  0  0  0  0
    5.4373    3.6381   -6.2375 H   0  0  0  0  0  0
    8.6222    4.8987   -3.6187 H   0  0  0  0  0  0
   -9.3365   -4.1565   -5.0997 H   0  0  0  0  0  0
   -8.1266   -5.1561   -5.9363 H   0  0  0  0  0  0
   -6.1341   -5.8248   -4.9611 H   0  0  0  0  0  0
   -5.5134   -5.3102   -3.4294 H   0  0  0  0  0  0
   -9.9803   -6.5991   -5.0300 H   0  0  0  0  0  0
   -9.6784   -6.0149   -3.4152 H   0  0  0  0  0  0
   -7.5047   -6.6523   -2.3443 H   0  0  0  0  0  0
   -6.4228   -7.6637   -3.2594 H   0  0  0  0  0  0
    8.1597    7.4342   -6.4544 H   0  0  0  0  0  0
    8.3638    6.8963   -4.8012 H   0  0  0  0  0  0
    6.7485    7.1264   -5.4539 H   0  0  0  0  0  0
    5.9046    5.6135   -7.3849 H   0  0  0  0  0  0
    6.8895    4.2586   -7.9369 H   0  0  0  0  0  0
    7.3880    5.9040   -8.2690 H   0  0  0  0  0  0
    9.6218    5.4353   -7.2805 H   0  0  0  0  0  0
    9.1937    3.7954   -6.8166 H   0  0  0  0  0  0
    9.8235    4.9183   -5.6206 H   0  0  0  0  0  0
  1 14  2  0  0  0
  2 22  2  0  0  0
  3 25  2  0  0  0
  4 39  1  0  0  0
  4 40  1  0  0  0
  5 14  1  0  0  0
  5 17  1  0  0  0
  5 31  1  0  0  0
  6 12  1  0  0  0
  6 19  1  0  0  0
  6 44  1  0  0  0
  7 16  1  0  0  0
  7 22  1  0  0  0
  7 45  1  0  0  0
  8 19  2  0  0  0
  8 28  1  0  0  0
  9 25  1  0  0  0
  9 37  1  0  0  0
  9 38  1  0  0  0
 10 11  1  0  0  0
 10 15  1  0  0  0
 10 17  2  0  0  0
 11 13  2  0  0  0
 11 18  1  0  0  0
 12 14  1  0  0  0
 12 15  2  0  0  0
 13 16  1  0  0  0
 13 27  1  0  0  0
 15 46  1  0  0  0
 16 20  2  0  0  0
 17 47  1  0  0  0
 18 21  2  0  0  0
 18 48  1  0  0  0
 19 26  1  0  0  0
 20 21  1  0  0  0
 20 49  1  0  0  0
 21 50  1  0  0  0
 22 24  1  0  0  0
 23 25  1  0  0  0
 23 28  2  0  0  0
 23 29  1  0  0  0
 24 33  2  0  0  0
 24 34  1  0  0  0
 26 29  2  0  0  0
 26 51  1  0  0  0
 27 52  1  0  0  0
 27 53  1  0  0  0
 27 54  1  0  0  0
 28 55  1  0  0  0
 29 56  1  0  0  0
 30 32  1  0  0  0
 30 35  2  0  0  0
 30 36  1  0  0  0
 31 57  1  0  0  0
 31 58  1  0  0  0
 31 59  1  0  0  0
 32 41  1  0  0  0
 32 42  1  0  0  0
 32 43  1  0  0  0
 33 35  1  0  0  0
 33 60  1  0  0  0
 34 36  2  0  0  0
 34 61  1  0  0  0
 35 62  1  0  0  0
 36 63  1  0  0  0
 37 39  1  0  0  0
 37 64  1  0  0  0
 37 65  1  0  0  0
 38 40  1  0  0  0
 38 66  1  0  0  0
 38 67  1  0  0  0
 39 68  1  0  0  0
 39 69  1  0  0  0
 40 70  1  0  0  0
 40 71  1  0  0  0
 41 72  1  0  0  0
 41 73  1  0  0  0
 41 74  1  0  0  0
 42 75  1  0  0  0
 42 76  1  0  0  0
 42 77  1  0  0  0
 43 78  1  0  0  0
 43 79  1  0  0  0
 43 80  1  0  0  0
M  END
> <chembl_id>
CHEMBL1973138

> <chembl_pref_name>
None

> <s_m_source_file>
sdf/inactives_sanitized.sdf

> <i_m_source_file_index>
54

> <i_lp_mmshare_version>
49012

> <i_m_ct_stereo_status>
1

> <i_f3d_flags>
0

> <s_epik_input>
W0NIMl0xW0NIMl1PW0NIMl1bQ0gyXU4xQyg9TyljKFtjSF1bY0hdMilbY0hdbmMyW05IXWMoYyg9TyluM1tDSDNdKVtjSF1jKFtjSF0zKS1jNGMoW0NIM10pYyhbY0hdW2NIXVtjSF00KVtOSF1DKD1PKWM1W2NIXVtjSF1jKEMoW0NIM10pKFtDSDNdKVtDSDNdKVtjSF1bY0hdNQ==

> <s_epik_cmdline>
J2VwaWtfcHl0aG9uJywgJy1waHQnLCAnMC41JywgJy1waCcsICc3LjUnLCAnLW50JywgJy1tYScsICcyMDAnLCAnLWltYWUnLCAnPGluZmlsZS5tYWU+JywgJy1vbWFlJywgJzxvdXRmaWxlLm1hZT4n

> <r_lp_tautomer_probability>
1

> <r_epik_Ionization_Penalty>
  0.0002

> <r_epik_Ionization_Penalty_Charging>
  0.0000

> <r_epik_Ionization_Penalty_Neutral>
  0.0002

> <r_epik_State_Penalty>
 -0.0000

> <r_epik_Charging_Adjusted_Penalty>
4.72798607380757e-06

> <i_epik_Tot_Q>
0

> <i_epik_Tot_abs_Q>
0

> <s_lp_Force_Field>
OPLS3e

> <r_lp_Energy>
94.856285

> <b_lp_Chiralities_Consistent>
1

> <s_lp_Variant>
sdf/inactives_sanitized.sdf:54-1

$$$$
sdf/inactives_sanitized.sdf:55
                    3D
 Schrodinger Suite 2020-1.
 69 72  0  0  1  0            999 V2000
   -6.3712   -2.9249   -2.3405 O   0  0  0  0  0  0
    2.1374    1.2294   -0.4190 O   0  0  0  0  0  0
   -2.8373   -2.0520   -0.1641 N   0  0  0  0  0  0
   -2.4766   -2.9915    0.7314 N   0  0  0  0  0  0
   -4.4941   -1.6908   -1.9113 N   0  0  0  0  0  0
   -5.9300   -0.9422   -3.4065 N   0  0  0  0  0  0
    2.0382   -0.3973    1.1625 N   0  0  0  0  0  0
    4.5224    1.6121    1.5179 N   0  3  0  0  0  0
   -3.9334   -2.4609   -0.9019 C   0  0  0  0  0  0
   -3.3029   -4.0088    0.5943 C   0  0  0  0  0  0
   -2.1344   -0.8173   -0.1815 C   0  0  0  0  0  0
   -4.2355   -3.7261   -0.4126 C   0  0  0  0  0  0
   -3.1536   -5.2590    1.4737 C   0  0  0  0  0  0
   -0.7483   -0.7940    0.0374 C   0  0  0  0  0  0
   -0.0327    0.4136    0.0420 C   0  0  0  0  0  0
   -2.8043    0.3905   -0.4170 C   0  0  0  0  0  0
   -5.6564   -1.9421   -2.5438 C   0  0  0  0  0  0
   -6.9921   -0.8056   -4.3297 C   0  0  0  0  0  0
   -7.2158    0.4850   -4.9179 C   0  0  0  0  0  0
    1.4658    0.4485    0.2603 C   0  0  0  0  0  0
   -0.7243    1.6032   -0.2231 C   0  0  0  0  0  0
   -8.2658    0.6396   -5.8803 C   0  0  0  0  0  0
   -2.1002    1.5923   -0.4431 C   0  0  0  0  0  0
   -4.2301   -6.3139    1.1208 C   0  0  0  0  0  0
   -3.3146   -4.8741    2.9635 C   0  0  0  0  0  0
   -1.7574   -5.8905    1.2579 C   0  0  0  0  0  0
   -7.7862   -1.8873   -4.7431 C   0  0  0  0  0  0
   -6.4425    1.6383   -4.5859 C   0  0  0  0  0  0
   -9.0511   -0.4798   -6.2396 C   0  0  0  0  0  0
   -8.5028    1.9102   -6.4626 C   0  0  0  0  0  0
   -8.8016   -1.7232   -5.6755 C   0  0  0  0  0  0
   -6.7010    2.8704   -5.1786 C   0  0  0  0  0  0
   -7.7228    3.0057   -6.1090 C   0  0  0  0  0  0
    3.4867   -0.6598    1.1569 C   0  0  0  0  0  0
    1.3255   -1.0321    2.2787 C   0  0  0  0  0  0
    4.2950    0.2255    2.1281 C   0  0  0  0  0  0
   -4.0038   -0.8403   -2.1466 H   0  0  0  0  0  0
   -5.2624   -0.1858   -3.4348 H   0  0  0  0  0  0
    5.0524    2.1916    2.1526 H   0  0  0  0  0  0
    3.6351    2.0581    1.3316 H   0  0  0  0  0  0
   -5.0292   -4.3774   -0.7467 H   0  0  0  0  0  0
   -0.2243   -1.7271    0.1920 H   0  0  0  0  0  0
   -3.8734    0.4174   -0.5659 H   0  0  0  0  0  0
   -0.2023    2.5495   -0.2478 H   0  0  0  0  0  0
   -2.6227    2.5193   -0.6289 H   0  0  0  0  0  0
   -4.1397   -7.2068    1.7411 H   0  0  0  0  0  0
   -4.1537   -6.6322    0.0800 H   0  0  0  0  0  0
   -5.2381   -5.9211    1.2630 H   0  0  0  0  0  0
   -4.2845   -4.4111    3.1505 H   0  0  0  0  0  0
   -2.5546   -4.1585    3.2810 H   0  0  0  0  0  0
   -3.2350   -5.7439    3.6173 H   0  0  0  0  0  0
   -1.6259   -6.7937    1.8553 H   0  0  0  0  0  0
   -0.9553   -5.2025    1.5295 H   0  0  0  0  0  0
   -1.6017   -6.1632    0.2130 H   0  0  0  0  0  0
   -7.6293   -2.8843   -4.3648 H   0  0  0  0  0  0
   -5.6430    1.5666   -3.8635 H   0  0  0  0  0  0
   -9.8435   -0.3662   -6.9657 H   0  0  0  0  0  0
   -9.2950    2.0255   -7.1886 H   0  0  0  0  0  0
   -9.3984   -2.5740   -5.9700 H   0  0  0  0  0  0
   -6.1028    3.7294   -4.9124 H   0  0  0  0  0  0
   -7.9127    3.9682   -6.5610 H   0  0  0  0  0  0
    3.6404   -1.7049    1.4299 H   0  0  0  0  0  0
    3.8895   -0.5591    0.1471 H   0  0  0  0  0  0
    0.2980   -0.6854    2.3881 H   0  0  0  0  0  0
    1.8269   -0.8181    3.2225 H   0  0  0  0  0  0
    1.3085   -2.1145    2.1481 H   0  0  0  0  0  0
    5.2999   -0.1587    2.3049 H   0  0  0  0  0  0
    3.7974    0.4110    3.0805 H   0  0  0  0  0  0
    5.0300    1.5311    0.6485 H   0  0  0  0  0  0
  1 17  2  0  0  0
  2 20  2  0  0  0
  3  4  1  0  0  0
  3  9  1  0  0  0
  3 11  1  0  0  0
  4 10  2  0  0  0
  5  9  1  0  0  0
  5 17  1  0  0  0
  5 37  1  0  0  0
  6 17  1  0  0  0
  6 18  1  0  0  0
  6 38  1  0  0  0
  7 20  1  0  0  0
  7 34  1  0  0  0
  7 35  1  0  0  0
  8 36  1  0  0  0
  8 39  1  0  0  0
  8 40  1  0  0  0
  8 69  1  0  0  0
  9 12  2  0  0  0
 10 12  1  0  0  0
 10 13  1  0  0  0
 11 14  2  0  0  0
 11 16  1  0  0  0
 12 41  1  0  0  0
 13 24  1  0  0  0
 13 25  1  0  0  0
 13 26  1  0  0  0
 14 15  1  0  0  0
 14 42  1  0  0  0
 15 20  1  0  0  0
 15 21  2  0  0  0
 16 23  2  0  0  0
 16 43  1  0  0  0
 18 19  1  0  0  0
 18 27  2  0  0  0
 19 22  2  0  0  0
 19 28  1  0  0  0
 21 23  1  0  0  0
 21 44  1  0  0  0
 22 29  1  0  0  0
 22 30  1  0  0  0
 23 45  1  0  0  0
 24 46  1  0  0  0
 24 47  1  0  0  0
 24 48  1  0  0  0
 25 49  1  0  0  0
 25 50  1  0  0  0
 25 51  1  0  0  0
 26 52  1  0  0  0
 26 53  1  0  0  0
 26 54  1  0  0  0
 27 31  1  0  0  0
 27 55  1  0  0  0
 28 32  2  0  0  0
 28 56  1  0  0  0
 29 31  2  0  0  0
 29 57  1  0  0  0
 30 33  2  0  0  0
 30 58  1  0  0  0
 31 59  1  0  0  0
 32 33  1  0  0  0
 32 60  1  0  0  0
 33 61  1  0  0  0
 34 36  1  0  0  0
 34 62  1  0  0  0
 34 63  1  0  0  0
 35 64  1  0  0  0
 35 65  1  0  0  0
 35 66  1  0  0  0
 36 67  1  0  0  0
 36 68  1  0  0  0
M  CHG  1   8   1
M  END
> <chembl_id>
CHEMBL1979773

> <chembl_pref_name>
None

> <s_m_source_file>
sdf/inactives_sanitized.sdf

> <i_m_source_file_index>
55

> <i_lp_mmshare_version>
49012

> <i_m_ct_stereo_status>
1

> <i_f3d_flags>
0

> <s_epik_input>
W2NIXTFbY0hdW2NIXVtjSF1jKGMxMilbY0hdW2NIXVtjSF1jMltOSF1DKD1PKVtOSF1jM1tjSF1jKEMoW0NIM10pKFtDSDNdKVtDSDNdKW5uMy1jNFtjSF1jKFtjSF1bY0hdW2NIXTQpQyg9TylOKFtDSDNdKVtDSDJdW0NIMl1bTkgyXQ==

> <s_epik_cmdline>
J2VwaWtfcHl0aG9uJywgJy1waHQnLCAnMC41JywgJy1waCcsICc3LjUnLCAnLW50JywgJy1tYScsICcyMDAnLCAnLWltYWUnLCAnPGluZmlsZS5tYWU+JywgJy1vbWFlJywgJzxvdXRmaWxlLm1hZT4n

> <r_lp_tautomer_probability>
1

> <r_epik_Ionization_Penalty>
  0.0076

> <r_epik_Ionization_Penalty_Charging>
  0.0076

> <r_epik_Ionization_Penalty_Neutral>
  0.0000

> <r_epik_State_Penalty>
 -0.0000

> <r_epik_Charging_Adjusted_Penalty>
0.00760234888186665

> <i_epik_Tot_Q>
1

> <i_epik_Tot_abs_Q>
1

> <s_lp_Force_Field>
OPLS3e

> <r_lp_Energy>
68.213729

> <b_lp_Chiralities_Consistent>
1

> <s_lp_Variant>
sdf/inactives_sanitized.sdf:55-1

$$$$
sdf/inactives_sanitized.sdf:56
                    3D
 Schrodinger Suite 2020-1.
 41 44  0  0  1  0            999 V2000
    0.0146   -0.0087   -0.0071 N   0  0  0  0  0  0
   -4.4874   -0.8838    0.0051 N   0  0  0  0  0  0
   -0.7329    1.0939   -0.1458 N   0  0  0  0  0  0
   -5.7899   -2.9449    0.0410 N   0  0  0  0  0  0
   -4.4469   -4.9649    0.0185 N   0  0  0  0  0  0
    1.2802   -0.7345   -3.4119 N   0  0  0  0  0  0
   -3.3177   -1.5823   -0.0112 C   0  0  0  0  0  0
   -3.3301   -2.9958   -0.0097 C   0  0  0  0  0  0
   -2.0765   -0.7469   -0.0351 C   0  0  0  0  0  0
   -4.6234   -3.5986    0.0189 C   0  0  0  0  0  0
   -0.7494   -1.1450    0.0598 C   0  0  0  0  0  0
    1.4797    0.0861    0.0363 C   0  0  2  0  0  0
   -1.9693    0.6524   -0.1557 C   0  0  0  0  0  0
   -2.3786   -4.0729   -0.0329 C   0  0  0  0  0  0
    1.9521    0.9167    1.2649 C   0  0  0  0  0  0
   -5.6429   -1.5946    0.0305 C   0  0  0  0  0  0
   -3.1035   -5.2504   -0.0129 C   0  0  0  0  0  0
    2.0035    0.6580   -1.3019 C   0  0  0  0  0  0
    3.4877    1.0127    1.3898 C   0  0  0  0  0  0
    1.4706    0.3611    2.6300 C   0  0  0  0  0  0
    3.7806    1.0281    2.8897 C   0  0  0  0  0  0
    2.7242    0.0944    3.4705 C   0  0  0  0  0  0
    1.5987   -0.1214   -2.4840 C   0  0  0  0  0  0
   -5.1592   -5.6806    0.0354 H   0  0  0  0  0  0
   -0.2813   -2.1104    0.1704 H   0  0  0  0  0  0
    1.8631   -0.9310    0.1418 H   0  0  0  0  0  0
   -2.7982    1.3382   -0.2537 H   0  0  0  0  0  0
   -1.3016   -4.0190   -0.0631 H   0  0  0  0  0  0
    1.5679    1.9330    1.1536 H   0  0  0  0  0  0
   -6.5552   -1.0167    0.0452 H   0  0  0  0  0  0
   -2.7756   -6.2798   -0.0206 H   0  0  0  0  0  0
    1.6591    1.6826   -1.4467 H   0  0  0  0  0  0
    3.0930    0.6911   -1.3046 H   0  0  0  0  0  0
    3.9743    0.1529    0.9256 H   0  0  0  0  0  0
    3.8804    1.9065    0.9029 H   0  0  0  0  0  0
    0.8370    1.0986    3.1254 H   0  0  0  0  0  0
    0.8763   -0.5490    2.5375 H   0  0  0  0  0  0
    4.7959    0.7026    3.1189 H   0  0  0  0  0  0
    3.6558    2.0356    3.2907 H   0  0  0  0  0  0
    2.5563    0.2691    4.5339 H   0  0  0  0  0  0
    3.0405   -0.9437    3.3537 H   0  0  0  0  0  0
  1  3  1  0  0  0
  1 11  1  0  0  0
  1 12  1  0  0  0
  2  7  2  0  0  0
  2 16  1  0  0  0
  3 13  2  0  0  0
  4 10  1  0  0  0
  4 16  2  0  0  0
  5 10  1  0  0  0
  5 17  1  0  0  0
  5 24  1  0  0  0
  6 23  3  0  0  0
  7  8  1  0  0  0
  7  9  1  0  0  0
  8 10  2  0  0  0
  8 14  1  0  0  0
  9 11  2  0  0  0
  9 13  1  0  0  0
 11 25  1  0  0  0
 12 15  1  0  0  0
 12 18  1  0  0  0
 12 26  1  0  0  0
 13 27  1  0  0  0
 14 17  2  0  0  0
 14 28  1  0  0  0
 15 19  1  0  0  0
 15 20  1  0  0  0
 15 29  1  0  0  0
 16 30  1  0  0  0
 17 31  1  0  0  0
 18 23  1  0  0  0
 18 32  1  0  0  0
 18 33  1  0  0  0
 19 21  1  0  0  0
 19 34  1  0  0  0
 19 35  1  0  0  0
 20 22  1  0  0  0
 20 36  1  0  0  0
 20 37  1  0  0  0
 21 22  1  0  0  0
 21 38  1  0  0  0
 21 39  1  0  0  0
 22 40  1  0  0  0
 22 41  1  0  0  0
M  END
> <chembl_id>
CHEMBL2002099

> <chembl_pref_name>
None

> <s_m_source_file>
sdf/inactives_sanitized.sdf

> <i_m_source_file_index>
56

> <i_lp_mmshare_version>
49012

> <i_m_ct_stereo_status>
1

> <i_f3d_flags>
0

> <s_epik_input>
W0NIMl0xW0NIMl1bQ0gyXVtDSDJdW0NIXTFbQ0BIXShbQ0gyXUMjTiluMm5bY0hdYyhbY0hdMiktYzNuW2NIXW5jKGMzNClbbkhdW2NIXVtjSF00

> <s_epik_cmdline>
J2VwaWtfcHl0aG9uJywgJy1waHQnLCAnMC41JywgJy1waCcsICc3LjUnLCAnLW50JywgJy1tYScsICcyMDAnLCAnLWltYWUnLCAnPGluZmlsZS5tYWU+JywgJy1vbWFlJywgJzxvdXRmaWxlLm1hZT4n

> <r_lp_tautomer_probability>
1

> <r_epik_Ionization_Penalty>
  0.0000

> <r_epik_Ionization_Penalty_Charging>
  0.0000

> <r_epik_Ionization_Penalty_Neutral>
  0.0000

> <r_epik_State_Penalty>
 -0.0000

> <r_epik_Charging_Adjusted_Penalty>
0

> <i_epik_Tot_Q>
0

> <i_epik_Tot_abs_Q>
0

> <s_lp_Force_Field>
OPLS3e

> <r_lp_Energy>
21.53914

> <b_lp_Chiralities_Consistent>
1

> <s_lp_Variant>
sdf/inactives_sanitized.sdf:56-1

$$$$
sdf/inactives_sanitized.sdf:57
                    3D
 Schrodinger Suite 2020-1.
 43 45  0  0  1  0            999 V2000
    1.3915   -0.2951    2.7468 Cl  0  0  0  0  0  0
   -4.9453    6.0456   -0.9714 F   0  0  0  0  0  0
   -4.7665    4.9140   -2.8092 F   0  0  0  0  0  0
   -2.9934    5.5878   -1.7684 F   0  0  0  0  0  0
   -4.3375    0.2191    1.2870 F   0  0  0  0  0  0
   -0.2237    2.3141   -0.3590 O   0  0  0  0  0  0
    9.8312   -0.3637   -0.1423 O   0  0  0  0  0  0
   -1.9993    0.9165    0.0478 N   0  0  0  0  0  0
    0.0536    0.0908    0.0543 N   0  0  0  0  0  0
    6.3632   -0.6453   -1.0030 N   0  0  0  0  0  0
    7.7472   -0.7203   -1.0176 N   0  0  0  0  0  0
    4.2641    0.0431   -0.0356 C   0  0  0  0  0  0
    5.7405    0.0314   -0.0901 C   0  0  0  0  0  0
   -4.2415    3.7971   -0.8316 C   0  0  0  0  0  0
   -3.1104    1.7769   -0.0575 C   0  0  0  0  0  0
    1.4529    0.0725    0.0315 C   0  0  0  0  0  0
   -4.2304    5.1146   -1.6057 C   0  0  0  0  0  0
    2.1804   -0.0984    1.2178 C   0  0  0  0  0  0
   -3.0994    2.9873   -0.7734 C   0  0  0  0  0  0
   -4.2869    1.3817    0.5931 C   0  0  0  0  0  0
    3.5755   -0.1148    1.1759 C   0  0  0  0  0  0
    6.5585    0.7664    0.8944 C   0  0  0  0  0  0
    3.5227    0.1954   -1.2167 C   0  0  0  0  0  0
   -5.4013    3.3874   -0.1655 C   0  0  0  0  0  0
   -0.6909    1.1995   -0.1136 C   0  0  0  0  0  0
    2.1289    0.2135   -1.1846 C   0  0  0  0  0  0
   -5.4240    2.1863    0.5396 C   0  0  0  0  0  0
    7.9142    0.6662    0.8270 C   0  0  0  0  0  0
    8.6184   -0.1647   -0.1331 C   0  0  0  0  0  0
    5.9602    1.7675    1.8799 C   0  0  0  0  0  0
   -2.2211   -0.0152    0.3670 H   0  0  0  0  0  0
   -0.4089   -0.7750    0.2899 H   0  0  0  0  0  0
    8.1284   -1.3013   -1.7504 H   0  0  0  0  0  0
   -2.2170    3.3019   -1.3087 H   0  0  0  0  0  0
    4.1149   -0.2755    2.0973 H   0  0  0  0  0  0
    4.0204    0.3119   -2.1695 H   0  0  0  0  0  0
   -6.2930    3.9967   -0.1972 H   0  0  0  0  0  0
    1.5779    0.3406   -2.1057 H   0  0  0  0  0  0
   -6.3267    1.8790    1.0469 H   0  0  0  0  0  0
    8.5257    1.2426    1.5067 H   0  0  0  0  0  0
    6.7008    2.4903    2.2258 H   0  0  0  0  0  0
    5.5510    1.2635    2.7546 H   0  0  0  0  0  0
    5.1634    2.3471    1.4115 H   0  0  0  0  0  0
  1 18  1  0  0  0
  2 17  1  0  0  0
  3 17  1  0  0  0
  4 17  1  0  0  0
  5 20  1  0  0  0
  6 25  2  0  0  0
  7 29  2  0  0  0
  8 15  1  0  0  0
  8 25  1  0  0  0
  8 31  1  0  0  0
  9 16  1  0  0  0
  9 25  1  0  0  0
  9 32  1  0  0  0
 10 11  1  0  0  0
 10 13  2  0  0  0
 11 29  1  0  0  0
 11 33  1  0  0  0
 12 13  1  0  0  0
 12 21  2  0  0  0
 12 23  1  0  0  0
 13 22  1  0  0  0
 14 17  1  0  0  0
 14 19  2  0  0  0
 14 24  1  0  0  0
 15 19  1  0  0  0
 15 20  2  0  0  0
 16 18  2  0  0  0
 16 26  1  0  0  0
 18 21  1  0  0  0
 19 34  1  0  0  0
 20 27  1  0  0  0
 21 35  1  0  0  0
 22 28  2  0  0  0
 22 30  1  0  0  0
 23 26  2  0  0  0
 23 36  1  0  0  0
 24 27  2  0  0  0
 24 37  1  0  0  0
 26 38  1  0  0  0
 27 39  1  0  0  0
 28 29  1  0  0  0
 28 40  1  0  0  0
 30 41  1  0  0  0
 30 42  1  0  0  0
 30 43  1  0  0  0
M  END
> <chembl_id>
CHEMBL1997892

> <chembl_pref_name>
None

> <s_m_source_file>
sdf/inactives_sanitized.sdf

> <i_m_source_file_index>
57

> <i_lp_mmshare_version>
49012

> <i_m_ct_stereo_status>
1

> <i_f3d_flags>
0

> <s_epik_input>
W0NIM11jMVtjSF1jKD1PKVtuSF1uYzEtYzJbY0hdYyhDbCljKFtjSF1bY0hdMilbTkhdQyg9TylbTkhdYyhbY0hdYzNDKEYpKEYpRiljKEYpW2NIXVtjSF0z

> <s_epik_cmdline>
J2VwaWtfcHl0aG9uJywgJy1waHQnLCAnMC41JywgJy1waCcsICc3LjUnLCAnLW50JywgJy1tYScsICcyMDAnLCAnLWltYWUnLCAnPGluZmlsZS5tYWU+JywgJy1vbWFlJywgJzxvdXRmaWxlLm1hZT4n

> <r_lp_tautomer_probability>
1

> <r_epik_Ionization_Penalty>
  0.0003

> <r_epik_Ionization_Penalty_Charging>
  0.0003

> <r_epik_Ionization_Penalty_Neutral>
  0.0000

> <r_epik_State_Penalty>
 -0.0000

> <r_epik_Charging_Adjusted_Penalty>
0.000253687126037066

> <i_epik_Tot_Q>
0

> <i_epik_Tot_abs_Q>
0

> <s_lp_Force_Field>
OPLS3e

> <r_lp_Energy>
61.302635

> <b_lp_Chiralities_Consistent>
1

> <s_lp_Variant>
sdf/inactives_sanitized.sdf:57-1

$$$$
sdf/inactives_sanitized.sdf:58
                    3D
 Schrodinger Suite 2020-1.
 27 29  0  0  1  0            999 V2000
   -4.9427   -3.4488    0.1445 O   0  5  0  0  0  0
   -4.1804   -0.0180   -0.0623 N   0  3  0  0  0  0
    4.3233    0.0136    0.0083 N   0  0  0  0  0  0
   -2.1157   -1.2313    0.0459 C   0  0  0  0  0  0
   -2.8040    0.0138   -0.0425 C   0  0  0  0  0  0
    0.0096   -0.0014   -0.0061 C   0  0  0  0  0  0
   -0.6996   -1.2093    0.0629 C   0  0  0  0  0  0
    1.5002    0.0016    0.0030 C   0  0  0  0  0  0
   -2.8669   -2.4351    0.1125 C   0  0  0  0  0  0
   -2.0958    1.2304   -0.1081 C   0  0  0  0  0  0
   -0.7032    1.2026   -0.0884 C   0  0  0  0  0  0
   -4.2623   -2.3817    0.0873 C   0  0  0  0  0  0
   -4.9064   -1.1492   -0.0020 C   0  0  0  0  0  0
    2.2196    0.9601    0.7336 C   0  0  0  0  0  0
    2.2305   -0.9520   -0.7234 C   0  0  0  0  0  0
    3.6153    0.9328    0.7107 C   0  0  0  0  0  0
    3.6258   -0.9121   -0.6960 C   0  0  0  0  0  0
   -0.1702   -2.1490    0.1342 H   0  0  0  0  0  0
   -2.3494   -3.3817    0.1809 H   0  0  0  0  0  0
   -2.6299    2.1673   -0.1760 H   0  0  0  0  0  0
   -0.1702    2.1406   -0.1477 H   0  0  0  0  0  0
   -5.9789   -1.0209   -0.0285 H   0  0  0  0  0  0
    1.7093    1.7137    1.3156 H   0  0  0  0  0  0
    1.7283   -1.7088   -1.3082 H   0  0  0  0  0  0
    4.1889    1.6604    1.2660 H   0  0  0  0  0  0
    4.2071   -1.6333   -1.2514 H   0  0  0  0  0  0
   -4.6783    0.8582   -0.1267 H   0  0  0  0  0  0
  1 12  1  0  0  0
  2  5  2  0  0  0
  2 13  1  0  0  0
  2 27  1  0  0  0
  3 16  2  0  0  0
  3 17  1  0  0  0
  4  5  1  0  0  0
  4  7  1  0  0  0
  4  9  2  0  0  0
  5 10  1  0  0  0
  6  7  2  0  0  0
  6  8  1  0  0  0
  6 11  1  0  0  0
  7 18  1  0  0  0
  8 14  2  0  0  0
  8 15  1  0  0  0
  9 12  1  0  0  0
  9 19  1  0  0  0
 10 11  2  0  0  0
 10 20  1  0  0  0
 11 21  1  0  0  0
 12 13  2  0  0  0
 13 22  1  0  0  0
 14 16  1  0  0  0
 14 23  1  0  0  0
 15 17  2  0  0  0
 15 24  1  0  0  0
 16 25  1  0  0  0
 17 26  1  0  0  0
M  CHG  2   1  -1   2   1
M  END
> <chembl_id>
CHEMBL1973868

> <chembl_pref_name>
None

> <s_m_source_file>
sdf/inactives_sanitized.sdf

> <i_m_source_file_index>
58

> <i_lp_mmshare_version>
49012

> <i_m_ct_stereo_status>
1

> <i_f3d_flags>
0

> <s_epik_input>
W09IXWMoW2NIXTEpW2NIXW5jKGMxMilbY0hdW2NIXWMoW2NIXTIpLWMzW2NIXVtjSF1uW2NIXVtjSF0z

> <s_epik_cmdline>
J2VwaWtfcHl0aG9uJywgJy1waHQnLCAnMC41JywgJy1waCcsICc3LjUnLCAnLW50JywgJy1tYScsICcyMDAnLCAnLWltYWUnLCAnPGluZmlsZS5tYWU+JywgJy1vbWFlJywgJzxvdXRmaWxlLm1hZT4n

> <r_epik_Ionization_Penalty>
  0.0584

> <r_epik_Ionization_Penalty_Charging>
  0.0567

> <r_epik_Ionization_Penalty_Neutral>
  0.0017

> <r_epik_State_Penalty>
  0.2991

> <r_epik_Charging_Adjusted_Penalty>
0.355812848477524

> <i_epik_Tot_Q>
0

> <i_epik_Tot_abs_Q>
2

> <s_lp_Force_Field>
OPLS3e

> <r_lp_Energy>
29.978603

> <b_lp_Chiralities_Consistent>
1

> <s_lp_Variant>
sdf/inactives_sanitized.sdf:58-1

$$$$
sdf/inactives_sanitized.sdf:58
                    3D
 Schrodinger Suite 2020-1.
 27 29  0  0  1  0            999 V2000
   -0.0003    0.0101   -0.1082 O   0  0  0  0  0  0
    3.4162   -1.2840    0.0836 N   0  0  0  0  0  0
    8.1100    5.8159   -0.0250 N   0  0  0  0  0  0
    3.5025    1.1525   -0.0197 C   0  0  0  0  0  0
    4.1336   -0.1252    0.0616 C   0  0  0  0  0  0
    5.6991    2.2397    0.0199 C   0  0  0  0  0  0
    4.3027    2.3201   -0.0391 C   0  0  0  0  0  0
    6.5309    3.4763    0.0017 C   0  0  0  0  0  0
    2.0866    1.1934   -0.0778 C   0  0  0  0  0  0
    5.5439   -0.1910    0.1208 C   0  0  0  0  0  0
    6.2997    0.9785    0.0987 C   0  0  0  0  0  0
    1.3679   -0.0000   -0.0536 C   0  0  0  0  0  0
    2.0636   -1.2036    0.0266 C   0  0  0  0  0  0
    7.7227    3.5380   -0.7375 C   0  0  0  0  0  0
    6.1492    4.6167    0.7257 C   0  0  0  0  0  0
    8.4760    4.7133   -0.7250 C   0  0  0  0  0  0
    6.9575    5.7542    0.6874 C   0  0  0  0  0  0
   -0.3670    0.8952   -0.1666 H   0  0  0  0  0  0
    3.8136    3.2816   -0.1069 H   0  0  0  0  0  0
    1.5799    2.1458   -0.1391 H   0  0  0  0  0  0
    6.0334   -1.1527    0.1846 H   0  0  0  0  0  0
    7.3756    0.8966    0.1517 H   0  0  0  0  0  0
    1.5324   -2.1440    0.0466 H   0  0  0  0  0  0
    8.0608    2.6923   -1.3185 H   0  0  0  0  0  0
    5.2446    4.6234    1.3164 H   0  0  0  0  0  0
    9.3961    4.7832   -1.2865 H   0  0  0  0  0  0
    6.6846    6.6413    1.2399 H   0  0  0  0  0  0
  1 12  1  0  0  0
  1 18  1  0  0  0
  2  5  2  0  0  0
  2 13  1  0  0  0
  3 16  2  0  0  0
  3 17  1  0  0  0
  4  5  1  0  0  0
  4  7  1  0  0  0
  4  9  2  0  0  0
  5 10  1  0  0  0
  6  7  2  0  0  0
  6  8  1  0  0  0
  6 11  1  0  0  0
  7 19  1  0  0  0
  8 14  2  0  0  0
  8 15  1  0  0  0
  9 12  1  0  0  0
  9 20  1  0  0  0
 10 11  2  0  0  0
 10 21  1  0  0  0
 11 22  1  0  0  0
 12 13  2  0  0  0
 13 23  1  0  0  0
 14 16  1  0  0  0
 14 24  1  0  0  0
 15 17  2  0  0  0
 15 25  1  0  0  0
 16 26  1  0  0  0
 17 27  1  0  0  0
M  END
> <chembl_id>
CHEMBL1973868

> <chembl_pref_name>
None

> <s_m_source_file>
sdf/inactives_sanitized.sdf

> <i_m_source_file_index>
58

> <i_lp_mmshare_version>
49012

> <i_m_ct_stereo_status>
1

> <i_f3d_flags>
0

> <s_epik_input>
W09IXWMoW2NIXTEpW2NIXW5jKGMxMilbY0hdW2NIXWMoW2NIXTIpLWMzW2NIXVtjSF1uW2NIXVtjSF0z

> <s_epik_cmdline>
J2VwaWtfcHl0aG9uJywgJy1waHQnLCAnMC41JywgJy1waCcsICc3LjUnLCAnLW50JywgJy1tYScsICcyMDAnLCAnLWltYWUnLCAnPGluZmlsZS5tYWU+JywgJy1vbWFlJywgJzxvdXRmaWxlLm1hZT4n

> <r_epik_Ionization_Penalty>
  0.0946

> <r_epik_Ionization_Penalty_Charging>
  0.0000

> <r_epik_Ionization_Penalty_Neutral>
  0.0946

> <r_epik_State_Penalty>
  0.6305

> <r_epik_Charging_Adjusted_Penalty>
0.630533611664232

> <i_epik_Tot_Q>
0

> <i_epik_Tot_abs_Q>
0

> <s_lp_Force_Field>
OPLS3e

> <r_lp_Energy>
30.482451

> <b_lp_Chiralities_Consistent>
1

> <s_lp_Variant>
sdf/inactives_sanitized.sdf:58-2

$$$$
sdf/inactives_sanitized.sdf:59
                    3D
 Schrodinger Suite 2020-1.
 44 46  0  0  1  0            999 V2000
   -4.7007   -0.2899    0.0212 O   0  0  0  0  0  0
   -4.7848   -2.3809   -0.9136 N   0  0  0  0  0  0
   -8.1010   -5.4047   -2.2323 N   0  0  0  0  0  0
   -8.9389   -3.3641   -1.2355 N   0  0  0  0  0  0
    2.0651    1.2263   -0.7946 N   0  3  0  0  0  0
   -6.5577   -3.8870   -1.5686 C   0  0  0  0  0  0
   -6.1638   -2.6575   -0.9995 C   0  0  0  0  0  0
   -7.9542   -4.1643   -1.6502 C   0  0  0  0  0  0
   -5.8856   -5.0256   -2.1323 C   0  0  0  0  0  0
   -4.1450   -1.2894   -0.4380 C   0  0  0  0  0  0
   -7.1907   -1.8024   -0.5568 C   0  0  0  0  0  0
   -2.6011   -1.3417   -0.4947 C   0  0  2  0  0  0
   -6.8624   -5.9227   -2.5223 C   0  0  0  0  0  0
   -8.5243   -2.1904   -0.6933 C   0  0  0  0  0  0
   -2.0493   -1.2084    0.9506 C   0  0  0  0  0  0
   -2.0964   -0.1526   -1.3565 C   0  0  0  0  0  0
    0.0440   -0.0271    0.0556 C   0  0  2  0  0  0
   -0.5055   -1.1982    0.9127 C   0  0  0  0  0  0
   -0.5522   -0.1510   -1.3746 C   0  0  0  0  0  0
    1.5989    0.0416    0.0628 C   0  0  2  0  0  0
    2.2434    0.2073    1.4521 C   0  0  0  0  0  0
   -4.1970   -3.1210   -1.2679 H   0  0  0  0  0  0
   -8.9606   -5.8952   -2.4333 H   0  0  0  0  0  0
    1.7209    2.0923   -0.4049 H   0  0  0  0  0  0
    1.7157    1.1332   -1.7376 H   0  0  0  0  0  0
   -4.8221   -5.1781   -2.2428 H   0  0  0  0  0  0
   -6.9939   -0.8438   -0.1060 H   0  0  0  0  0  0
   -2.3120   -2.2977   -0.9382 H   0  0  0  0  0  0
   -6.7836   -6.8954   -2.9860 H   0  0  0  0  0  0
   -9.3102   -1.5328   -0.3518 H   0  0  0  0  0  0
   -2.3453   -0.2660    1.4171 H   0  0  0  0  0  0
   -2.3388   -2.0628    1.5653 H   0  0  0  0  0  0
   -2.4196   -0.2508   -2.3945 H   0  0  0  0  0  0
   -2.3935    0.8119   -0.9384 H   0  0  0  0  0  0
   -0.3442    0.8981    0.4875 H   0  0  0  0  0  0
   -0.1287   -1.1312    1.9332 H   0  0  0  0  0  0
   -0.1227   -2.1490    0.5373 H   0  0  0  0  0  0
   -0.1739   -1.0530   -1.8594 H   0  0  0  0  0  0
   -0.2047    0.6665   -2.0065 H   0  0  0  0  0  0
    2.0296   -0.8163   -0.4562 H   0  0  0  0  0  0
    2.0844   -0.6724    2.0755 H   0  0  0  0  0  0
    1.8353    1.0684    1.9832 H   0  0  0  0  0  0
    3.3233    0.3444    1.3782 H   0  0  0  0  0  0
    3.0742    1.2608   -0.8228 H   0  0  0  0  0  0
  1 10  2  0  0  0
  2  7  1  0  0  0
  2 10  1  0  0  0
  2 22  1  0  0  0
  3  8  1  0  0  0
  3 13  1  0  0  0
  3 23  1  0  0  0
  4  8  2  0  0  0
  4 14  1  0  0  0
  5 20  1  0  0  0
  5 24  1  0  0  0
  5 25  1  0  0  0
  5 44  1  0  0  0
  6  7  2  0  0  0
  6  8  1  0  0  0
  6  9  1  0  0  0
  7 11  1  0  0  0
  9 13  2  0  0  0
  9 26  1  0  0  0
 10 12  1  0  0  0
 11 14  2  0  0  0
 11 27  1  0  0  0
 12 15  1  0  0  0
 12 16  1  0  0  0
 12 28  1  0  0  0
 13 29  1  0  0  0
 14 30  1  0  0  0
 15 18  1  0  0  0
 15 31  1  0  0  0
 15 32  1  0  0  0
 16 19  1  0  0  0
 16 33  1  0  0  0
 16 34  1  0  0  0
 17 18  1  0  0  0
 17 19  1  0  0  0
 17 20  1  0  0  0
 17 35  1  0  0  0
 18 36  1  0  0  0
 18 37  1  0  0  0
 19 38  1  0  0  0
 19 39  1  0  0  0
 20 21  1  0  0  0
 20 40  1  0  0  0
 21 41  1  0  0  0
 21 42  1  0  0  0
 21 43  1  0  0  0
M  CHG  1   5   1
M  END
> <chembl_id>
CHEMBL2002992

> <chembl_pref_name>
None

> <s_m_source_file>
sdf/inactives_sanitized.sdf

> <i_m_source_file_index>
59

> <i_lp_mmshare_version>
49012

> <i_m_ct_stereo_status>
1

> <i_f3d_flags>
0

> <s_epik_input>
W05IMl1bQ0BASF0oW0NIM10pW0NAQEhdKFtDSDJdW0NIMl0xKVtDSDJdW0NIMl1bQ0BIXTFDKD1PKVtOSF1jMltjSF1bY0hdbmMoYzIzKVtuSF1bY0hdW2NIXTM=

> <s_epik_cmdline>
J2VwaWtfcHl0aG9uJywgJy1waHQnLCAnMC41JywgJy1waCcsICc3LjUnLCAnLW50JywgJy1tYScsICcyMDAnLCAnLWltYWUnLCAnPGluZmlsZS5tYWU+JywgJy1vbWFlJywgJzxvdXRmaWxlLm1hZT4n

> <r_lp_tautomer_probability>
1

> <r_epik_Ionization_Penalty>
  0.0017

> <r_epik_Ionization_Penalty_Charging>
  0.0011

> <r_epik_Ionization_Penalty_Neutral>
  0.0006

> <r_epik_State_Penalty>
 -0.0000

> <r_epik_Charging_Adjusted_Penalty>
0.00111557697539295

> <i_epik_Tot_Q>
1

> <i_epik_Tot_abs_Q>
1

> <s_lp_Force_Field>
OPLS3e

> <r_lp_Energy>
39.297175

> <b_lp_Chiralities_Consistent>
1

> <s_lp_Variant>
sdf/inactives_sanitized.sdf:59-1

$$$$
sdf/inactives_sanitized.sdf:60
                    3D
 Schrodinger Suite 2020-1.
 83 90  0  0  1  0            999 V2000
  -13.7685    5.2410   -3.6691 F   0  0  0  0  0  0
   -9.9619    5.1407   -0.8053 F   0  0  0  0  0  0
  -12.5036    6.0437   -1.3589 F   0  0  0  0  0  0
   -3.1634   -4.2313   -1.9209 O   0  0  0  0  0  0
    1.6843    1.0385    2.1776 O   0  0  0  0  0  0
    2.9043    2.9314   10.3317 O   0  0  0  0  0  0
   -9.4301    1.2868   -4.3637 N   0  0  0  0  0  0
   -3.5039    0.0877   -1.6323 N   0  0  0  0  0  0
   -2.1723   -2.4777   -1.0031 N   0  0  0  0  0  0
  -12.1177   -1.0702   -3.4543 N   0  3  0  0  0  0
    2.2874    2.0379    7.6513 N   0  0  0  0  0  0
   -8.0261   -0.2626   -3.4618 C   0  0  0  0  0  0
   -9.3796   -0.7478   -3.3575 C   0  0  0  0  0  0
  -10.2361    0.2488   -3.9302 C   0  0  0  0  0  0
   -6.7660   -0.9365   -3.0293 C   0  0  0  0  0  0
   -8.1247    0.9836   -4.0551 C   0  0  0  0  0  0
   -4.5090   -0.7726   -2.0779 C   0  0  0  0  0  0
   -4.3802   -2.1803   -2.1498 C   0  0  0  0  0  0
   -5.7071   -0.1894   -2.5126 C   0  0  0  0  0  0
   -6.6291   -2.3183   -3.0993 C   0  0  0  0  0  0
   -9.9801   -1.9115   -2.8336 C   0  0  0  0  0  0
  -11.6261    0.0703   -3.9735 C   0  0  0  0  0  0
   -9.8818    2.5343   -4.9729 C   0  0  0  0  0  0
   -3.1888   -3.0193   -1.6974 C   0  0  0  0  0  0
   -5.4559   -2.9277   -2.6719 C   0  0  0  0  0  0
   -2.1835    0.0003   -1.1937 C   0  0  0  0  0  0
   -1.5569   -1.2284   -0.8999 C   0  0  0  0  0  0
  -10.5853    3.4737   -3.9999 C   0  0  0  0  0  0
  -11.3685   -2.0404   -2.9014 C   0  0  0  0  0  0
   -0.2112   -1.2247   -0.5083 C   0  0  0  0  0  0
   -1.4496    1.1816   -1.0273 C   0  0  0  0  0  0
    0.5136   -0.0421   -0.3691 C   0  0  0  0  0  0
  -11.8749    3.9388   -4.2783 C   0  0  0  0  0  0
   -9.9454    3.8881   -2.8258 C   0  0  0  0  0  0
  -12.5203    4.8009   -3.3906 C   0  0  0  0  0  0
  -10.5897    4.7501   -1.9379 C   0  0  0  0  0  0
   -0.1193    1.1702   -0.6214 C   0  0  0  0  0  0
  -11.8784    5.2071   -2.2193 C   0  0  0  0  0  0
    1.9780   -0.0807    0.0456 C   0  0  0  0  0  0
    2.1825   -0.1503    1.5674 C   0  0  0  0  0  0
    1.8543    1.2239    3.5365 C   0  0  0  0  0  0
    2.1365    1.7828    6.2874 C   0  0  0  0  0  0
    1.4065    2.4341    4.0622 C   0  0  0  0  0  0
    2.4379    0.2835    4.3971 C   0  0  0  0  0  0
    1.5434    2.7123    5.4194 C   0  0  0  0  0  0
    2.5746    0.5634    5.7539 C   0  0  0  0  0  0
    3.6134    1.8552    8.2724 C   0  0  0  0  0  0
    1.5791    3.1517    8.3099 C   0  0  0  0  0  0
    3.5569    1.7822    9.8133 C   0  0  0  0  0  0
    1.5737    3.0426    9.8494 C   0  0  0  0  0  0
   -3.7963    1.0513   -1.7060 H   0  0  0  0  0  0
   -1.5470   -3.2108   -0.7020 H   0  0  0  0  0  0
   -7.3454    1.6903   -4.3035 H   0  0  0  0  0  0
   -5.8119    0.8851   -2.4531 H   0  0  0  0  0  0
   -7.4213   -2.9324   -3.5004 H   0  0  0  0  0  0
   -9.3876   -2.6901   -2.3767 H   0  0  0  0  0  0
  -12.3398    0.7694   -4.3846 H   0  0  0  0  0  0
   -9.0290    3.0463   -5.4221 H   0  0  0  0  0  0
  -10.5460    2.2724   -5.7985 H   0  0  0  0  0  0
   -5.4166   -4.0051   -2.7532 H   0  0  0  0  0  0
  -11.9129   -2.8940   -2.5235 H   0  0  0  0  0  0
    0.2846   -2.1636   -0.3031 H   0  0  0  0  0  0
   -1.9161    2.1351   -1.2308 H   0  0  0  0  0  0
  -12.3823    3.6334   -5.1823 H   0  0  0  0  0  0
   -8.9474    3.5420   -2.5992 H   0  0  0  0  0  0
    0.4167    2.1020   -0.5132 H   0  0  0  0  0  0
    2.4525   -0.9412   -0.4282 H   0  0  0  0  0  0
    2.4949    0.7906   -0.3601 H   0  0  0  0  0  0
    3.2506   -0.2472    1.7708 H   0  0  0  0  0  0
    1.6864   -1.0331    1.9746 H   0  0  0  0  0  0
    0.9528    3.1680    3.4122 H   0  0  0  0  0  0
    2.7893   -0.6703    4.0341 H   0  0  0  0  0  0
    1.1906    3.6668    5.7804 H   0  0  0  0  0  0
    3.0170   -0.1893    6.3898 H   0  0  0  0  0  0
    4.0728    0.9325    7.9199 H   0  0  0  0  0  0
    4.2737    2.6626    7.9530 H   0  0  0  0  0  0
    2.0148    4.1018    7.9967 H   0  0  0  0  0  0
    0.5414    3.1558    7.9736 H   0  0  0  0  0  0
    4.5672    1.7424   10.2207 H   0  0  0  0  0  0
    3.0535    0.8718   10.1445 H   0  0  0  0  0  0
    0.9720    2.1941   10.1812 H   0  0  0  0  0  0
    1.1199    3.9335   10.2836 H   0  0  0  0  0  0
  -13.1189   -1.2056   -3.4789 H   0  0  0  0  0  0
  1 35  1  0  0  0
  2 36  1  0  0  0
  3 38  1  0  0  0
  4 24  2  0  0  0
  5 40  1  0  0  0
  5 41  1  0  0  0
  6 49  1  0  0  0
  6 50  1  0  0  0
  7 14  1  0  0  0
  7 16  1  0  0  0
  7 23  1  0  0  0
  8 17  1  0  0  0
  8 26  1  0  0  0
  8 51  1  0  0  0
  9 24  1  0  0  0
  9 27  1  0  0  0
  9 52  1  0  0  0
 10 22  2  0  0  0
 10 29  1  0  0  0
 10 83  1  0  0  0
 11 42  1  0  0  0
 11 47  1  0  0  0
 11 48  1  0  0  0
 12 13  1  0  0  0
 12 15  1  0  0  0
 12 16  2  0  0  0
 13 14  2  0  0  0
 13 21  1  0  0  0
 14 22  1  0  0  0
 15 19  2  0  0  0
 15 20  1  0  0  0
 16 53  1  0  0  0
 17 18  2  0  0  0
 17 19  1  0  0  0
 18 24  1  0  0  0
 18 25  1  0  0  0
 19 54  1  0  0  0
 20 25  2  0  0  0
 20 55  1  0  0  0
 21 29  2  0  0  0
 21 56  1  0  0  0
 22 57  1  0  0  0
 23 28  1  0  0  0
 23 58  1  0  0  0
 23 59  1  0  0  0
 25 60  1  0  0  0
 26 27  2  0  0  0
 26 31  1  0  0  0
 27 30  1  0  0  0
 28 33  2  0  0  0
 28 34  1  0  0  0
 29 61  1  0  0  0
 30 32  2  0  0  0
 30 62  1  0  0  0
 31 37  2  0  0  0
 31 63  1  0  0  0
 32 37  1  0  0  0
 32 39  1  0  0  0
 33 35  1  0  0  0
 33 64  1  0  0  0
 34 36  2  0  0  0
 34 65  1  0  0  0
 35 38  2  0  0  0
 36 38  1  0  0  0
 37 66  1  0  0  0
 39 40  1  0  0  0
 39 67  1  0  0  0
 39 68  1  0  0  0
 40 69  1  0  0  0
 40 70  1  0  0  0
 41 43  2  0  0  0
 41 44  1  0  0  0
 42 45  2  0  0  0
 42 46  1  0  0  0
 43 45  1  0  0  0
 43 71  1  0  0  0
 44 46  2  0  0  0
 44 72  1  0  0  0
 45 73  1  0  0  0
 46 74  1  0  0  0
 47 49  1  0  0  0
 47 75  1  0  0  0
 47 76  1  0  0  0
 48 50  1  0  0  0
 48 77  1  0  0  0
 48 78  1  0  0  0
 49 79  1  0  0  0
 49 80  1  0  0  0
 50 81  1  0  0  0
 50 82  1  0  0  0
M  CHG  1  10   1
M  END
> <chembl_id>
CHEMBL2001923

> <chembl_pref_name>
None

> <s_m_source_file>
sdf/inactives_sanitized.sdf

> <i_m_source_file_index>
60

> <i_lp_mmshare_version>
49012

> <i_m_ct_stereo_status>
1

> <i_f3d_flags>
0

> <s_epik_input>
RmMoW2NIXTEpYyhGKWMoRilbY0hdYzFbQ0gyXW4oYyhjMjMpW2NIXW5bY0hdW2NIXTMpW2NIXWMyLWMoW2NIXTQpW2NIXVtjSF1jKGM0NSlDKD1PKVtOSF1jNmMoW05IXTUpW2NIXVtjSF1jKFtjSF02KVtDSDJdW0NIMl1PYzdbY0hdW2NIXWMoW2NIXVtjSF03KU44W0NIMl1bQ0gyXU9bQ0gyXVtDSDJdOA==

> <s_epik_cmdline>
J2VwaWtfcHl0aG9uJywgJy1waHQnLCAnMC41JywgJy1waCcsICc3LjUnLCAnLW50JywgJy1tYScsICcyMDAnLCAnLWltYWUnLCAnPGluZmlsZS5tYWU+JywgJy1vbWFlJywgJzxvdXRmaWxlLm1hZT4n

> <r_lp_tautomer_probability>
1

> <r_epik_Ionization_Penalty>
  0.2987

> <r_epik_Ionization_Penalty_Charging>
  0.2987

> <r_epik_Ionization_Penalty_Neutral>
  0.0000

> <r_epik_State_Penalty>
  0.2921

> <r_epik_Charging_Adjusted_Penalty>
0.590780763242868

> <i_epik_Tot_Q>
1

> <i_epik_Tot_abs_Q>
1

> <s_lp_Force_Field>
OPLS3e

> <r_lp_Energy>
95.842058

> <b_lp_Chiralities_Consistent>
1

> <s_lp_Variant>
sdf/inactives_sanitized.sdf:60-1

$$$$
sdf/inactives_sanitized.sdf:60
                    3D
 Schrodinger Suite 2020-1.
 82 89  0  0  1  0            999 V2000
  -13.7647    5.1982   -3.4827 F   0  0  0  0  0  0
   -9.8210    5.1993   -0.8090 F   0  0  0  0  0  0
  -12.3982    6.0617   -1.2546 F   0  0  0  0  0  0
   -3.1885   -4.2490   -1.8399 O   0  0  0  0  0  0
    1.7013    1.0479    2.1448 O   0  0  0  0  0  0
    2.8505    2.9439   10.3075 O   0  0  0  0  0  0
   -9.4572    1.2597   -4.3101 N   0  0  0  0  0  0
   -3.5126    0.0755   -1.6177 N   0  0  0  0  0  0
   -2.1852   -2.4842   -0.9580 N   0  0  0  0  0  0
  -12.1997   -1.0890   -3.3681 N   0  0  0  0  0  0
    2.2626    2.0484    7.6219 N   0  0  0  0  0  0
   -8.0485   -0.2864   -3.4086 C   0  0  0  0  0  0
   -9.4025   -0.7684   -3.2917 C   0  0  0  0  0  0
  -10.2583    0.2251   -3.8620 C   0  0  0  0  0  0
   -6.7868   -0.9588   -2.9782 C   0  0  0  0  0  0
   -8.1500    0.9562   -4.0107 C   0  0  0  0  0  0
   -4.5231   -0.7882   -2.0440 C   0  0  0  0  0  0
   -4.3989   -2.1971   -2.0962 C   0  0  0  0  0  0
   -5.7222   -0.2079   -2.4791 C   0  0  0  0  0  0
   -6.6542   -2.3418   -3.0298 C   0  0  0  0  0  0
  -10.0043   -1.9248   -2.7580 C   0  0  0  0  0  0
  -11.6456    0.0349   -3.8846 C   0  0  0  0  0  0
   -9.9144    2.5051   -4.9189 C   0  0  0  0  0  0
   -3.2081   -3.0334   -1.6370 C   0  0  0  0  0  0
   -5.4802   -2.9487   -2.6009 C   0  0  0  0  0  0
   -2.1890   -0.0095   -1.1884 C   0  0  0  0  0  0
   -1.5644   -1.2357   -0.8800 C   0  0  0  0  0  0
  -10.5803    3.4597   -3.9346 C   0  0  0  0  0  0
  -11.3937   -2.0312   -2.8239 C   0  0  0  0  0  0
   -0.2157   -1.2307   -0.4992 C   0  0  0  0  0  0
   -1.4495    1.1715   -1.0467 C   0  0  0  0  0  0
    0.5146   -0.0488   -0.3851 C   0  0  0  0  0  0
  -11.8876    3.9046   -4.1585 C   0  0  0  0  0  0
   -9.8885    3.9056   -2.8025 C   0  0  0  0  0  0
  -12.4990    4.7778   -3.2577 C   0  0  0  0  0  0
  -10.4988    4.7787   -1.9014 C   0  0  0  0  0  0
   -0.1158    1.1616   -0.6520 C   0  0  0  0  0  0
  -11.8052    5.2153   -2.1281 C   0  0  0  0  0  0
    1.9820   -0.0861    0.0193 C   0  0  0  0  0  0
    2.1968   -0.1446    1.5400 C   0  0  0  0  0  0
    1.8638    1.2352    3.5042 C   0  0  0  0  0  0
    2.1240    1.7943    6.2568 C   0  0  0  0  0  0
    1.4039    2.4419    4.0276 C   0  0  0  0  0  0
    2.4510    0.2996    4.3675 C   0  0  0  0  0  0
    1.5299    2.7202    5.3858 C   0  0  0  0  0  0
    2.5768    0.5795    5.7253 C   0  0  0  0  0  0
    3.5876    1.8833    8.2498 C   0  0  0  0  0  0
    1.5380    3.1536    8.2768 C   0  0  0  0  0  0
    3.5219    1.8048    9.7901 C   0  0  0  0  0  0
    1.5222    3.0401    9.8157 C   0  0  0  0  0  0
   -3.8029    1.0386   -1.7031 H   0  0  0  0  0  0
   -1.5607   -3.2143   -0.6489 H   0  0  0  0  0  0
   -7.3724    1.6605   -4.2700 H   0  0  0  0  0  0
   -5.8246    0.8675   -2.4341 H   0  0  0  0  0  0
   -7.4518   -2.9582   -3.4162 H   0  0  0  0  0  0
   -9.4182   -2.7069   -2.2999 H   0  0  0  0  0  0
  -12.3209    0.7645   -4.3066 H   0  0  0  0  0  0
   -9.0699    3.0026   -5.3982 H   0  0  0  0  0  0
  -10.6048    2.2417   -5.7222 H   0  0  0  0  0  0
   -5.4454   -4.0271   -2.6667 H   0  0  0  0  0  0
  -11.8899   -2.9025   -2.4223 H   0  0  0  0  0  0
    0.2777   -2.1681   -0.2822 H   0  0  0  0  0  0
   -1.9146    2.1231   -1.2614 H   0  0  0  0  0  0
  -12.4355    3.5732   -5.0288 H   0  0  0  0  0  0
   -8.8770    3.5741   -2.6178 H   0  0  0  0  0  0
    0.4247    2.0928   -0.5631 H   0  0  0  0  0  0
    2.4519   -0.9510   -0.4511 H   0  0  0  0  0  0
    2.4972    0.7814   -0.3965 H   0  0  0  0  0  0
    3.2660   -0.2399    1.7381 H   0  0  0  0  0  0
    1.7038   -1.0252    1.9559 H   0  0  0  0  0  0
    0.9478    3.1725    3.3754 H   0  0  0  0  0  0
    2.8129   -0.6508    4.0062 H   0  0  0  0  0  0
    1.1673    3.6716    5.7454 H   0  0  0  0  0  0
    3.0215   -0.1695    6.3637 H   0  0  0  0  0  0
    4.0644    0.9694    7.8963 H   0  0  0  0  0  0
    4.2365    2.7032    7.9375 H   0  0  0  0  0  0
    1.9684    4.1079    7.9690 H   0  0  0  0  0  0
    0.5029    3.1488    7.9321 H   0  0  0  0  0  0
    4.5299    1.7772   10.2043 H   0  0  0  0  0  0
    3.0281    0.8870   10.1154 H   0  0  0  0  0  0
    0.9290    2.1828   10.1403 H   0  0  0  0  0  0
    1.0533    3.9236   10.2492 H   0  0  0  0  0  0
  1 35  1  0  0  0
  2 36  1  0  0  0
  3 38  1  0  0  0
  4 24  2  0  0  0
  5 40  1  0  0  0
  5 41  1  0  0  0
  6 49  1  0  0  0
  6 50  1  0  0  0
  7 14  1  0  0  0
  7 16  1  0  0  0
  7 23  1  0  0  0
  8 17  1  0  0  0
  8 26  1  0  0  0
  8 51  1  0  0  0
  9 24  1  0  0  0
  9 27  1  0  0  0
  9 52  1  0  0  0
 10 22  2  0  0  0
 10 29  1  0  0  0
 11 42  1  0  0  0
 11 47  1  0  0  0
 11 48  1  0  0  0
 12 13  1  0  0  0
 12 15  1  0  0  0
 12 16  2  0  0  0
 13 14  2  0  0  0
 13 21  1  0  0  0
 14 22  1  0  0  0
 15 19  2  0  0  0
 15 20  1  0  0  0
 16 53  1  0  0  0
 17 18  2  0  0  0
 17 19  1  0  0  0
 18 24  1  0  0  0
 18 25  1  0  0  0
 19 54  1  0  0  0
 20 25  2  0  0  0
 20 55  1  0  0  0
 21 29  2  0  0  0
 21 56  1  0  0  0
 22 57  1  0  0  0
 23 28  1  0  0  0
 23 58  1  0  0  0
 23 59  1  0  0  0
 25 60  1  0  0  0
 26 27  2  0  0  0
 26 31  1  0  0  0
 27 30  1  0  0  0
 28 33  2  0  0  0
 28 34  1  0  0  0
 29 61  1  0  0  0
 30 32  2  0  0  0
 30 62  1  0  0  0
 31 37  2  0  0  0
 31 63  1  0  0  0
 32 37  1  0  0  0
 32 39  1  0  0  0
 33 35  1  0  0  0
 33 64  1  0  0  0
 34 36  2  0  0  0
 34 65  1  0  0  0
 35 38  2  0  0  0
 36 38  1  0  0  0
 37 66  1  0  0  0
 39 40  1  0  0  0
 39 67  1  0  0  0
 39 68  1  0  0  0
 40 69  1  0  0  0
 40 70  1  0  0  0
 41 43  2  0  0  0
 41 44  1  0  0  0
 42 45  2  0  0  0
 42 46  1  0  0  0
 43 45  1  0  0  0
 43 71  1  0  0  0
 44 46  2  0  0  0
 44 72  1  0  0  0
 45 73  1  0  0  0
 46 74  1  0  0  0
 47 49  1  0  0  0
 47 75  1  0  0  0
 47 76  1  0  0  0
 48 50  1  0  0  0
 48 77  1  0  0  0
 48 78  1  0  0  0
 49 79  1  0  0  0
 49 80  1  0  0  0
 50 81  1  0  0  0
 50 82  1  0  0  0
M  END
> <chembl_id>
CHEMBL2001923

> <chembl_pref_name>
None

> <s_m_source_file>
sdf/inactives_sanitized.sdf

> <i_m_source_file_index>
60

> <i_lp_mmshare_version>
49012

> <i_m_ct_stereo_status>
1

> <i_f3d_flags>
0

> <s_epik_input>
RmMoW2NIXTEpYyhGKWMoRilbY0hdYzFbQ0gyXW4oYyhjMjMpW2NIXW5bY0hdW2NIXTMpW2NIXWMyLWMoW2NIXTQpW2NIXVtjSF1jKGM0NSlDKD1PKVtOSF1jNmMoW05IXTUpW2NIXVtjSF1jKFtjSF02KVtDSDJdW0NIMl1PYzdbY0hdW2NIXWMoW2NIXVtjSF03KU44W0NIMl1bQ0gyXU9bQ0gyXVtDSDJdOA==

> <s_epik_cmdline>
J2VwaWtfcHl0aG9uJywgJy1waHQnLCAnMC41JywgJy1waCcsICc3LjUnLCAnLW50JywgJy1tYScsICcyMDAnLCAnLWltYWUnLCAnPGluZmlsZS5tYWU+JywgJy1vbWFlJywgJzxvdXRmaWxlLm1hZT4n

> <r_lp_tautomer_probability>
1

> <r_epik_Ionization_Penalty>
  0.5489

> <r_epik_Ionization_Penalty_Charging>
  0.0000

> <r_epik_Ionization_Penalty_Neutral>
  0.5489

> <r_epik_State_Penalty>
  0.5591

> <r_epik_Charging_Adjusted_Penalty>
0.559092539033279

> <i_epik_Tot_Q>
0

> <i_epik_Tot_abs_Q>
0

> <s_lp_Force_Field>
OPLS3e

> <r_lp_Energy>
88.059996

> <b_lp_Chiralities_Consistent>
1

> <s_lp_Variant>
sdf/inactives_sanitized.sdf:60-2

$$$$
sdf/inactives_sanitized.sdf:61
                    3D
 Schrodinger Suite 2020-1.
 25 27  0  0  1  0            999 V2000
    4.2198    2.7307   -0.2424 Cl  0  0  0  0  0  0
    2.1004   -1.2070    0.0763 N   0  0  0  0  0  0
    5.7711   -4.0725   -0.2637 N   0  0  0  0  0  0
    2.0521    1.2032   -0.0294 N   0  0  0  0  0  0
    4.6807   -6.0002    0.7089 N   0  0  0  0  0  0
    0.0697   -0.0360    0.1668 N   0  0  0  0  0  0
    4.1597   -2.4946    0.0069 C   0  0  0  0  0  0
    3.6857   -3.7506    0.5441 C   0  0  0  0  0  0
    3.4580   -1.1757   -0.0254 C   0  0  0  0  0  0
    4.7218   -4.7126    0.3517 C   0  0  0  0  0  0
    5.4408   -2.7559   -0.4624 C   0  0  0  0  0  0
    4.1591    0.0337   -0.1212 C   0  0  0  0  0  0
    1.4576   -0.0123    0.0668 C   0  0  0  0  0  0
    3.4083    1.2132   -0.1221 C   0  0  0  0  0  0
    2.5111   -4.2053    1.1748 C   0  0  0  0  0  0
    2.4408   -5.5459    1.5591 C   0  0  0  0  0  0
    3.5255   -6.3875    1.3108 C   0  0  0  0  0  0
    6.6602   -4.4637   -0.5402 H   0  0  0  0  0  0
   -0.4408    0.8353    0.1663 H   0  0  0  0  0  0
   -0.4065   -0.9231    0.2404 H   0  0  0  0  0  0
    6.1578   -2.1014   -0.9361 H   0  0  0  0  0  0
    5.2369    0.0615   -0.1888 H   0  0  0  0  0  0
    1.6805   -3.5409    1.3610 H   0  0  0  0  0  0
    1.5549   -5.9282    2.0443 H   0  0  0  0  0  0
    3.4777   -7.4256    1.6058 H   0  0  0  0  0  0
  1 14  1  0  0  0
  2  9  2  0  0  0
  2 13  1  0  0  0
  3 10  1  0  0  0
  3 11  1  0  0  0
  3 18  1  0  0  0
  4 13  2  0  0  0
  4 14  1  0  0  0
  5 10  2  0  0  0
  5 17  1  0  0  0
  6 13  1  0  0  0
  6 19  1  0  0  0
  6 20  1  0  0  0
  7  8  1  0  0  0
  7  9  1  0  0  0
  7 11  2  0  0  0
  8 10  1  0  0  0
  8 15  2  0  0  0
  9 12  1  0  0  0
 11 21  1  0  0  0
 12 14  2  0  0  0
 12 22  1  0  0  0
 15 16  1  0  0  0
 15 23  1  0  0  0
 16 17  2  0  0  0
 16 24  1  0  0  0
 17 25  1  0  0  0
M  END
> <chembl_id>
CHEMBL2007574

> <chembl_pref_name>
None

> <s_m_source_file>
sdf/inactives_sanitized.sdf

> <i_m_source_file_index>
61

> <i_lp_mmshare_version>
49012

> <i_m_ct_stereo_status>
1

> <i_f3d_flags>
0

> <s_epik_input>
Q2xjKFtjSF0xKW5jKFtOSDJdKW5jMS1jMltjSF1bbkhdYyhjMjMpbltjSF1bY0hdW2NIXTM=

> <s_epik_cmdline>
J2VwaWtfcHl0aG9uJywgJy1waHQnLCAnMC41JywgJy1waCcsICc3LjUnLCAnLW50JywgJy1tYScsICcyMDAnLCAnLWltYWUnLCAnPGluZmlsZS5tYWU+JywgJy1vbWFlJywgJzxvdXRmaWxlLm1hZT4n

> <r_lp_tautomer_probability>
1

> <r_epik_Ionization_Penalty>
  0.0003

> <r_epik_Ionization_Penalty_Charging>
  0.0000

> <r_epik_Ionization_Penalty_Neutral>
  0.0003

> <r_epik_State_Penalty>
 -0.0000

> <r_epik_Charging_Adjusted_Penalty>
0

> <i_epik_Tot_Q>
0

> <i_epik_Tot_abs_Q>
0

> <s_lp_Force_Field>
OPLS3e

> <r_lp_Energy>
22.001561

> <b_lp_Chiralities_Consistent>
1

> <s_lp_Variant>
sdf/inactives_sanitized.sdf:61-1

$$$$
sdf/inactives_sanitized.sdf:62
                    3D
 Schrodinger Suite 2020-1.
 41 44  0  0  1  0            999 V2000
    2.0704   -1.3987    0.3520 S   0  0  0  0  0  0
    4.5267    2.9533   -0.0337 O   0  0  0  0  0  0
   -0.3447    2.5222    0.0977 O   0  0  0  0  0  0
    2.2065    1.1976    0.1736 N   0  0  0  0  0  0
   -0.0178    0.2640    0.3162 N   0  0  0  0  0  0
   -2.0847    1.0407    0.2436 N   0  0  0  0  0  0
    3.4988    0.7675    0.1530 C   0  0  0  0  0  0
    3.6553   -0.6443    0.2415 C   0  0  0  0  0  0
    1.3678    0.1976    0.2698 C   0  0  0  0  0  0
    4.6395    1.5885    0.0541 C   0  0  0  0  0  0
    4.9252   -1.2375    0.2331 C   0  0  0  0  0  0
   -4.4210    1.3759   -0.3471 C   0  0  0  0  0  0
   -3.2129    1.8871    0.1841 C   0  0  0  0  0  0
   -0.7784    1.3741    0.2157 C   0  0  0  0  0  0
    5.8979    0.9833    0.0466 C   0  0  0  0  0  0
   -4.5460    0.0003   -0.9227 C   0  0  0  0  0  0
    6.0368   -0.4012    0.1342 C   0  0  0  0  0  0
   -5.5543    2.2028   -0.3485 C   0  0  0  0  0  0
   -3.1789    3.1976    0.6940 C   0  0  0  0  0  0
   -5.5901   -0.8413   -0.5168 C   0  0  0  0  0  0
   -3.6415   -0.4627   -1.8883 C   0  0  0  0  0  0
   -5.5057    3.5012    0.1518 C   0  0  0  0  0  0
   -4.3170    3.9985    0.6730 C   0  0  0  0  0  0
   -5.7196   -2.1207   -1.0507 C   0  0  0  0  0  0
   -3.7680   -1.7410   -2.4250 C   0  0  0  0  0  0
   -4.8064   -2.5659   -2.0022 C   0  0  0  0  0  0
    5.3742    3.3999   -0.0944 H   0  0  0  0  0  0
   -0.4956   -0.6206    0.4059 H   0  0  0  0  0  0
   -2.2981    0.0557    0.1859 H   0  0  0  0  0  0
    5.0440   -2.3090    0.3005 H   0  0  0  0  0  0
    6.7854    1.5950   -0.0283 H   0  0  0  0  0  0
    7.0264   -0.8343    0.1249 H   0  0  0  0  0  0
   -6.4877    1.8407   -0.7548 H   0  0  0  0  0  0
   -2.2835    3.6073    1.1361 H   0  0  0  0  0  0
   -6.3030   -0.5070    0.2232 H   0  0  0  0  0  0
   -2.8387    0.1731   -2.2333 H   0  0  0  0  0  0
   -6.3903    4.1206    0.1359 H   0  0  0  0  0  0
   -4.2786    5.0022    1.0700 H   0  0  0  0  0  0
   -6.5246   -2.7646   -0.7281 H   0  0  0  0  0  0
   -3.0663   -2.0898   -3.1684 H   0  0  0  0  0  0
   -4.9061   -3.5577   -2.4179 H   0  0  0  0  0  0
  1  8  1  0  0  0
  1  9  1  0  0  0
  2 10  1  0  0  0
  2 27  1  0  0  0
  3 14  2  0  0  0
  4  7  1  0  0  0
  4  9  2  0  0  0
  5  9  1  0  0  0
  5 14  1  0  0  0
  5 28  1  0  0  0
  6 13  1  0  0  0
  6 14  1  0  0  0
  6 29  1  0  0  0
  7  8  2  0  0  0
  7 10  1  0  0  0
  8 11  1  0  0  0
 10 15  2  0  0  0
 11 17  2  0  0  0
 11 30  1  0  0  0
 12 13  1  0  0  0
 12 16  1  0  0  0
 12 18  2  0  0  0
 13 19  2  0  0  0
 15 17  1  0  0  0
 15 31  1  0  0  0
 16 20  2  0  0  0
 16 21  1  0  0  0
 17 32  1  0  0  0
 18 22  1  0  0  0
 18 33  1  0  0  0
 19 23  1  0  0  0
 19 34  1  0  0  0
 20 24  1  0  0  0
 20 35  1  0  0  0
 21 25  2  0  0  0
 21 36  1  0  0  0
 22 23  2  0  0  0
 22 37  1  0  0  0
 23 38  1  0  0  0
 24 26  2  0  0  0
 24 39  1  0  0  0
 25 26  1  0  0  0
 25 40  1  0  0  0
 26 41  1  0  0  0
M  END
> <chembl_id>
CHEMBL2002690

> <chembl_pref_name>
None

> <s_m_source_file>
sdf/inactives_sanitized.sdf

> <i_m_source_file_index>
62

> <i_lp_mmshare_version>
49012

> <i_m_ct_stereo_status>
1

> <i_f3d_flags>
0

> <s_epik_input>
W09IXWMxW2NIXVtjSF1bY0hdYyhjMTIpc2MobjIpW05IXUMoPU8pW05IXWMoW2NIXVtjSF1bY0hdW2NIXTMpYzMtYzRbY0hdW2NIXVtjSF1bY0hdW2NIXTQ=

> <s_epik_cmdline>
J2VwaWtfcHl0aG9uJywgJy1waHQnLCAnMC41JywgJy1waCcsICc3LjUnLCAnLW50JywgJy1tYScsICcyMDAnLCAnLWltYWUnLCAnPGluZmlsZS5tYWU+JywgJy1vbWFlJywgJzxvdXRmaWxlLm1hZT4n

> <r_epik_Ionization_Penalty>
  0.2152

> <r_epik_Ionization_Penalty_Charging>
  0.0000

> <r_epik_Ionization_Penalty_Neutral>
  0.2152

> <r_epik_State_Penalty>
  0.2038

> <r_epik_Charging_Adjusted_Penalty>
0.2038217903163

> <i_epik_Tot_Q>
0

> <i_epik_Tot_abs_Q>
0

> <s_lp_Force_Field>
OPLS3e

> <r_lp_Energy>
52.072282

> <b_lp_Chiralities_Consistent>
1

> <s_lp_Variant>
sdf/inactives_sanitized.sdf:62-1

$$$$
sdf/inactives_sanitized.sdf:63
                    3D
 Schrodinger Suite 2020-1.
 43 45  0  0  1  0            999 V2000
   -5.3860    5.8211   -1.2331 F   0  0  0  0  0  0
   -5.1623    4.5664   -2.9847 F   0  0  0  0  0  0
   -3.4287    5.4877   -2.0777 F   0  0  0  0  0  0
   -4.1771    0.3058    1.4794 F   0  0  0  0  0  0
   -0.3119    2.4401   -0.8146 O   0  0  0  0  0  0
    9.9052   -0.6721    0.0211 O   0  0  0  0  0  0
   -1.9032    1.1991    0.2721 N   0  0  0  0  0  0
    6.4536   -0.7622    0.9837 N   0  0  0  0  0  0
    0.1910    0.5182    0.3263 N   0  0  0  0  0  0
    7.8294   -0.9275    0.9509 N   0  0  0  0  0  0
   -4.4688    3.6709   -0.9453 C   0  0  0  0  0  0
   -3.1079    1.8981    0.0420 C   0  0  0  0  0  0
   -4.6065    4.9139   -1.8243 C   0  0  0  0  0  0
   -3.2302    3.0373   -0.7754 C   0  0  0  0  0  0
    5.8148   -0.2742   -0.0327 C   0  0  0  0  0  0
   -4.2506    1.4009    0.6845 C   0  0  0  0  0  0
    4.3593   -0.0286    0.0373 C   0  0  0  0  0  0
   -5.5929    3.1560   -0.2924 C   0  0  0  0  0  0
    6.5960    0.0403   -1.2446 C   0  0  0  0  0  0
   -5.4843    2.0273    0.5159 C   0  0  0  0  0  0
    1.5888    0.4023    0.1939 C   0  0  0  0  0  0
   -0.6457    1.4717   -0.1331 C   0  0  0  0  0  0
    3.8012    1.1684   -0.4274 C   0  0  0  0  0  0
    3.5198   -0.9984    0.5997 C   0  0  0  0  0  0
    2.4281    1.3855   -0.3524 C   0  0  0  0  0  0
    2.1465   -0.7841    0.6738 C   0  0  0  0  0  0
    7.9434   -0.1512   -1.2257 C   0  0  0  0  0  0
    8.6806   -0.6054   -0.0602 C   0  0  0  0  0  0
    5.9403    0.4117   -2.5723 C   0  0  0  0  0  0
   -2.0126    0.3778    0.8488 H   0  0  0  0  0  0
   -0.2397   -0.2467    0.8243 H   0  0  0  0  0  0
    8.2296   -1.2825    1.8073 H   0  0  0  0  0  0
   -2.3802    3.4460   -1.2958 H   0  0  0  0  0  0
   -6.5569    3.6292   -0.4123 H   0  0  0  0  0  0
   -6.3602    1.6376    1.0138 H   0  0  0  0  0  0
    4.4240    1.9553   -0.8258 H   0  0  0  0  0  0
    3.9220   -1.9289    0.9761 H   0  0  0  0  0  0
    2.0544    2.3302   -0.7123 H   0  0  0  0  0  0
    1.5197   -1.5509    1.1070 H   0  0  0  0  0  0
    8.5192    0.0227   -2.1237 H   0  0  0  0  0  0
    6.5998    0.2218   -3.4205 H   0  0  0  0  0  0
    5.6613    1.4644   -2.5934 H   0  0  0  0  0  0
    5.0430   -0.1851   -2.7414 H   0  0  0  0  0  0
  1 13  1  0  0  0
  2 13  1  0  0  0
  3 13  1  0  0  0
  4 16  1  0  0  0
  5 22  2  0  0  0
  6 28  2  0  0  0
  7 12  1  0  0  0
  7 22  1  0  0  0
  7 30  1  0  0  0
  8 10  1  0  0  0
  8 15  2  0  0  0
  9 21  1  0  0  0
  9 22  1  0  0  0
  9 31  1  0  0  0
 10 28  1  0  0  0
 10 32  1  0  0  0
 11 13  1  0  0  0
 11 14  2  0  0  0
 11 18  1  0  0  0
 12 14  1  0  0  0
 12 16  2  0  0  0
 14 33  1  0  0  0
 15 17  1  0  0  0
 15 19  1  0  0  0
 16 20  1  0  0  0
 17 23  2  0  0  0
 17 24  1  0  0  0
 18 20  2  0  0  0
 18 34  1  0  0  0
 19 27  2  0  0  0
 19 29  1  0  0  0
 20 35  1  0  0  0
 21 25  2  0  0  0
 21 26  1  0  0  0
 23 25  1  0  0  0
 23 36  1  0  0  0
 24 26  2  0  0  0
 24 37  1  0  0  0
 25 38  1  0  0  0
 26 39  1  0  0  0
 27 28  1  0  0  0
 27 40  1  0  0  0
 29 41  1  0  0  0
 29 42  1  0  0  0
 29 43  1  0  0  0
M  END
> <chembl_id>
CHEMBL1965033

> <chembl_pref_name>
None

> <s_m_source_file>
sdf/inactives_sanitized.sdf

> <i_m_source_file_index>
63

> <i_lp_mmshare_version>
49012

> <i_m_ct_stereo_status>
1

> <i_f3d_flags>
0

> <s_epik_input>
RkMoRikoRiljMVtjSF1jKGMoRilbY0hdW2NIXTEpW05IXUMoPU8pW05IXWMoW2NIXVtjSF0yKVtjSF1bY0hdYzItYzNuW25IXWMoPU8pW2NIXWMzW0NIM10=

> <s_epik_cmdline>
J2VwaWtfcHl0aG9uJywgJy1waHQnLCAnMC41JywgJy1waCcsICc3LjUnLCAnLW50JywgJy1tYScsICcyMDAnLCAnLWltYWUnLCAnPGluZmlsZS5tYWU+JywgJy1vbWFlJywgJzxvdXRmaWxlLm1hZT4n

> <r_lp_tautomer_probability>
1

> <r_epik_Ionization_Penalty>
  0.0002

> <r_epik_Ionization_Penalty_Charging>
  0.0002

> <r_epik_Ionization_Penalty_Neutral>
  0.0000

> <r_epik_State_Penalty>
 -0.0000

> <r_epik_Charging_Adjusted_Penalty>
0.000233672588234998

> <i_epik_Tot_Q>
0

> <i_epik_Tot_abs_Q>
0

> <s_lp_Force_Field>
OPLS3e

> <r_lp_Energy>
61.98282

> <b_lp_Chiralities_Consistent>
1

> <s_lp_Variant>
sdf/inactives_sanitized.sdf:63-1

$$$$
sdf/inactives_sanitized.sdf:64
                    3D
 Schrodinger Suite 2020-1.
 38 41  0  0  1  0            999 V2000
    4.4093    2.6300   -0.9363 Cl  0  0  0  0  0  0
   -0.4527    2.2558   -0.3538 O   0  0  0  0  0  0
    6.0392   -3.7846    1.0420 N   0  0  0  0  0  0
    5.0535   -5.3287    2.6188 N   0  0  0  0  0  0
    2.2058    1.2408   -0.4237 N   0  0  0  0  0  0
    0.1256    0.0738    0.0040 N   0  0  0  0  0  0
    4.3663   -2.2606    0.8371 C   0  0  0  0  0  0
    3.9591   -3.2859    1.7733 C   0  0  0  0  0  0
    3.6025   -1.0601    0.3757 C   0  0  0  0  0  0
    5.0302   -4.2254    1.8642 C   0  0  0  0  0  0
    5.6502   -2.6148    0.4411 C   0  0  0  0  0  0
    2.2021   -1.0306    0.3862 C   0  0  0  0  0  0
    1.5311    0.1289   -0.0157 C   0  0  0  0  0  0
    4.2873    0.0901   -0.0374 C   0  0  0  0  0  0
    2.8270   -3.5453    2.5718 C   0  0  0  0  0  0
    3.5614    1.2155   -0.4298 C   0  0  0  0  0  0
   -0.7668    1.0820   -0.1417 C   0  0  0  0  0  0
    2.8244   -4.6905    3.3705 C   0  0  0  0  0  0
    3.9340   -5.5357    3.3601 C   0  0  0  0  0  0
   -2.2288    0.6902   -0.0463 C   0  0  0  0  0  0
   -3.2180    1.5898   -0.4730 C   0  0  0  0  0  0
   -2.6266   -0.5552    0.4714 C   0  0  0  0  0  0
   -4.5667    1.2542   -0.3898 C   0  0  0  0  0  0
   -3.9757   -0.8900    0.5538 C   0  0  0  0  0  0
   -4.9401    0.0156    0.1228 C   0  0  0  0  0  0
    6.9375   -4.2153    0.8766 H   0  0  0  0  0  0
   -0.2571   -0.8378    0.2055 H   0  0  0  0  0  0
    6.3279   -2.1283   -0.2454 H   0  0  0  0  0  0
    1.6377   -1.9022    0.6804 H   0  0  0  0  0  0
    5.3672    0.1186   -0.0469 H   0  0  0  0  0  0
    1.9788   -2.8786    2.5858 H   0  0  0  0  0  0
    1.9722   -4.9184    3.9940 H   0  0  0  0  0  0
    3.9387   -6.4228    3.9765 H   0  0  0  0  0  0
   -2.9526    2.5577   -0.8747 H   0  0  0  0  0  0
   -1.9026   -1.2776    0.8195 H   0  0  0  0  0  0
   -5.3203    1.9532   -0.7215 H   0  0  0  0  0  0
   -4.2728   -1.8488    0.9526 H   0  0  0  0  0  0
   -5.9865   -0.2442    0.1881 H   0  0  0  0  0  0
  1 16  1  0  0  0
  2 17  2  0  0  0
  3 10  1  0  0  0
  3 11  1  0  0  0
  3 26  1  0  0  0
  4 10  2  0  0  0
  4 19  1  0  0  0
  5 13  2  0  0  0
  5 16  1  0  0  0
  6 13  1  0  0  0
  6 17  1  0  0  0
  6 27  1  0  0  0
  7  8  1  0  0  0
  7  9  1  0  0  0
  7 11  2  0  0  0
  8 10  1  0  0  0
  8 15  2  0  0  0
  9 12  2  0  0  0
  9 14  1  0  0  0
 11 28  1  0  0  0
 12 13  1  0  0  0
 12 29  1  0  0  0
 14 16  2  0  0  0
 14 30  1  0  0  0
 15 18  1  0  0  0
 15 31  1  0  0  0
 17 20  1  0  0  0
 18 19  2  0  0  0
 18 32  1  0  0  0
 19 33  1  0  0  0
 20 21  2  0  0  0
 20 22  1  0  0  0
 21 23  1  0  0  0
 21 34  1  0  0  0
 22 24  2  0  0  0
 22 35  1  0  0  0
 23 25  2  0  0  0
 23 36  1  0  0  0
 24 25  1  0  0  0
 24 37  1  0  0  0
 25 38  1  0  0  0
M  END
> <chembl_id>
CHEMBL1993413

> <chembl_pref_name>
None

> <s_m_source_file>
sdf/inactives_sanitized.sdf

> <i_m_source_file_index>
64

> <i_lp_mmshare_version>
49012

> <i_m_ct_stereo_status>
1

> <i_f3d_flags>
0

> <s_epik_input>
W2NIXTFbY0hdW2NIXVtjSF1bY0hdYzFDKD1PKVtOSF1jKG5jKENsKVtjSF0yKVtjSF1jMi1jM1tjSF1bbkhdYyhjMzQpbltjSF1bY0hdW2NIXTQ=

> <s_epik_cmdline>
J2VwaWtfcHl0aG9uJywgJy1waHQnLCAnMC41JywgJy1waCcsICc3LjUnLCAnLW50JywgJy1tYScsICcyMDAnLCAnLWltYWUnLCAnPGluZmlsZS5tYWU+JywgJy1vbWFlJywgJzxvdXRmaWxlLm1hZT4n

> <r_lp_tautomer_probability>
1

> <r_epik_Ionization_Penalty>
  0.0006

> <r_epik_Ionization_Penalty_Charging>
  0.0000

> <r_epik_Ionization_Penalty_Neutral>
  0.0006

> <r_epik_State_Penalty>
 -0.0000

> <r_epik_Charging_Adjusted_Penalty>
0

> <i_epik_Tot_Q>
0

> <i_epik_Tot_abs_Q>
0

> <s_lp_Force_Field>
OPLS3e

> <r_lp_Energy>
39.752775

> <b_lp_Chiralities_Consistent>
1

> <s_lp_Variant>
sdf/inactives_sanitized.sdf:64-1

$$$$
sdf/inactives_sanitized.sdf:65
                    3D
 Schrodinger Suite 2020-1.
 44 46  0  0  1  0            999 V2000
    4.5181    2.5982   -0.4877 Cl  0  0  0  0  0  0
   -6.5102    1.4157   -2.1782 F   0  0  0  0  0  0
   -4.7734    2.0174   -3.3096 F   0  0  0  0  0  0
   -5.6070    3.3480   -1.8181 F   0  0  0  0  0  0
   -0.0020    0.1772    0.0775 O   0  0  0  0  0  0
    9.4390   -2.7727   -2.0283 O   0  0  0  0  0  0
    7.5987   -3.6581   -2.9012 O   0  5  0  0  0  0
    6.3740   -0.1173   -1.1733 N   0  3  1  0  0  0
    7.6144   -1.3076   -2.4872 C   0  0  2  0  0  0
    4.1876   -0.0437    0.1575 C   0  0  0  0  0  0
    7.8737   -0.4184   -1.2587 C   0  0  0  0  0  0
    6.1119   -1.2593   -2.1608 C   0  0  0  0  0  0
    5.7032   -0.1963    0.2101 C   0  0  0  0  0  0
    3.5796    1.1841   -0.1482 C   0  0  0  0  0  0
   -4.4335    1.4936   -1.0320 C   0  0  0  0  0  0
   -5.3508    2.0727   -2.1081 C   0  0  0  0  0  0
    1.3790    0.1680    0.0897 C   0  0  0  0  0  0
   -2.1957    1.1609   -0.1323 C   0  0  0  0  0  0
    2.1871    1.2841   -0.1820 C   0  0  0  0  0  0
    3.3835   -1.1529    0.4340 C   0  0  0  0  0  0
   -3.0485    1.6909   -1.1067 C   0  0  0  0  0  0
    8.2687   -2.6971   -2.4630 C   0  0  0  0  0  0
    1.9946   -1.0458    0.3971 C   0  0  0  0  0  0
   -4.9592    0.7603    0.0392 C   0  0  0  0  0  0
   -0.6934    1.3882   -0.2234 C   0  0  0  0  0  0
   -2.7390    0.4357    0.9333 C   0  0  0  0  0  0
   -4.1157    0.2353    1.0174 C   0  0  0  0  0  0
    7.8861   -0.8537   -3.4411 H   0  0  0  0  0  0
    8.4099    0.5105   -1.4557 H   0  0  0  0  0  0
    8.1882   -0.9324   -0.3471 H   0  0  0  0  0  0
    5.7065   -2.1154   -1.6159 H   0  0  0  0  0  0
    5.4674   -0.8927   -2.9604 H   0  0  0  0  0  0
    6.0089   -1.1596    0.6238 H   0  0  0  0  0  0
    6.1722    0.5974    0.7934 H   0  0  0  0  0  0
    1.7470    2.2404   -0.4214 H   0  0  0  0  0  0
    3.8317   -2.1063    0.6742 H   0  0  0  0  0  0
   -2.6332    2.2596   -1.9266 H   0  0  0  0  0  0
    1.3896   -1.9152    0.6099 H   0  0  0  0  0  0
   -6.0238    0.5962    0.1227 H   0  0  0  0  0  0
   -0.4222    2.1760    0.4817 H   0  0  0  0  0  0
   -0.4258    1.7253   -1.2271 H   0  0  0  0  0  0
   -2.0957    0.0261    1.6988 H   0  0  0  0  0  0
   -4.5291   -0.3269    1.8418 H   0  0  0  0  0  0
    6.1643    0.7765   -1.5952 H   0  0  0  0  0  0
  1 14  1  0  0  0
  2 16  1  0  0  0
  3 16  1  0  0  0
  4 16  1  0  0  0
  5 17  1  0  0  0
  5 25  1  0  0  0
  6 22  2  0  0  0
  7 22  1  0  0  0
  8 11  1  0  0  0
  8 12  1  0  0  0
  8 13  1  0  0  0
  8 44  1  0  0  0
  9 11  1  0  0  0
  9 12  1  0  0  0
  9 22  1  0  0  0
  9 28  1  0  0  0
 10 13  1  0  0  0
 10 14  2  0  0  0
 10 20  1  0  0  0
 11 29  1  0  0  0
 11 30  1  0  0  0
 12 31  1  0  0  0
 12 32  1  0  0  0
 13 33  1  0  0  0
 13 34  1  0  0  0
 14 19  1  0  0  0
 15 16  1  0  0  0
 15 21  2  0  0  0
 15 24  1  0  0  0
 17 19  2  0  0  0
 17 23  1  0  0  0
 18 21  1  0  0  0
 18 25  1  0  0  0
 18 26  2  0  0  0
 19 35  1  0  0  0
 20 23  2  0  0  0
 20 36  1  0  0  0
 21 37  1  0  0  0
 23 38  1  0  0  0
 24 27  2  0  0  0
 24 39  1  0  0  0
 25 40  1  0  0  0
 25 41  1  0  0  0
 26 27  1  0  0  0
 26 42  1  0  0  0
 27 43  1  0  0  0
M  CHG  2   7  -1   8   1
M  END
> <chembl_id>
CHEMBL1986265

> <chembl_pref_name>
None

> <s_m_source_file>
sdf/inactives_sanitized.sdf

> <i_m_source_file_index>
65

> <i_lp_mmshare_version>
49012

> <i_m_ct_stereo_status>
1

> <i_f3d_flags>
0

> <s_epik_input>
Tz1DKFtPSF0pW0NIXShbQ0gyXTEpW0NIMl1OMVtDSDJdYzJjKENsKVtjSF1jKFtjSF1bY0hdMilPW0NIMl1jKFtjSF1jM0MoRikoRilGKVtjSF1bY0hdW2NIXTM=

> <s_epik_cmdline>
J2VwaWtfcHl0aG9uJywgJy1waHQnLCAnMC41JywgJy1waCcsICc3LjUnLCAnLW50JywgJy1tYScsICcyMDAnLCAnLWltYWUnLCAnPGluZmlsZS5tYWU+JywgJy1vbWFlJywgJzxvdXRmaWxlLm1hZT4n

> <r_lp_tautomer_probability>
1

> <r_epik_Ionization_Penalty>
  0.0379

> <r_epik_Ionization_Penalty_Charging>
  0.0379

> <r_epik_Ionization_Penalty_Neutral>
  0.0000

> <r_epik_State_Penalty>
  0.0318

> <r_epik_Charging_Adjusted_Penalty>
0.0696780207220511

> <i_epik_Tot_Q>
0

> <i_epik_Tot_abs_Q>
2

> <s_lp_Force_Field>
OPLS3e

> <r_lp_Energy>
32.211376

> <b_lp_Chiralities_Consistent>
1

> <s_lp_Variant>
sdf/inactives_sanitized.sdf:65-1

$$$$
sdf/inactives_sanitized.sdf:66
                    3D
 Schrodinger Suite 2020-1.
 42 44  0  0  1  0            999 V2000
   -3.3869    1.7435   -0.0458 S   0  0  0  0  0  0
   -0.4226    1.8275   -0.5225 O   0  0  0  0  0  0
    1.0096   -0.8368   -4.9525 O   0  0  0  0  0  0
    0.0186   -0.2773    0.2223 N   0  0  0  0  0  0
   -8.7879    2.0682    0.4773 N   0  0  0  0  0  0
   -2.2021    0.4918    0.2066 C   0  0  0  0  0  0
   -4.6952    0.6955    0.4411 C   0  0  0  0  0  0
   -0.8063    0.7522   -0.0577 C   0  0  0  0  0  0
   -6.1088    1.1904    0.4500 C   0  0  0  0  0  0
   -2.8153   -0.6843    0.6401 C   0  0  0  0  0  0
   -4.2025   -0.5666    0.7708 C   0  0  0  0  0  0
    1.4741   -0.2915    0.0211 C   0  0  2  0  0  0
    1.9341   -0.0452   -1.4224 C   0  0  0  0  0  0
   -7.1687    0.2718    0.4402 C   0  0  0  0  0  0
   -6.4196    2.5592    0.4778 C   0  0  0  0  0  0
    1.2329   -0.5861   -2.5090 C   0  0  0  0  0  0
    1.6460   -0.3428   -3.8302 C   0  0  0  0  0  0
    3.0571    0.7516   -1.6660 C   0  0  0  0  0  0
   -8.4815    0.7470    0.4532 C   0  0  0  0  0  0
   -7.7592    2.9523    0.4896 C   0  0  0  0  0  0
    2.7746    0.4513   -4.0444 C   0  0  0  0  0  0
    3.4770    0.9973   -2.9717 C   0  0  0  0  0  0
    2.0712   -1.6021    0.5604 C   0  0  0  0  0  0
   -0.1608   -1.6312   -4.7919 C   0  0  0  0  0  0
   -0.3476   -1.0210    0.7977 H   0  0  0  0  0  0
   -2.2837   -1.5998    0.8549 H   0  0  0  0  0  0
   -4.8285   -1.3830    1.0989 H   0  0  0  0  0  0
    1.8689    0.5155    0.6430 H   0  0  0  0  0  0
   -6.9881   -0.7928    0.4167 H   0  0  0  0  0  0
   -5.6464    3.3130    0.4959 H   0  0  0  0  0  0
    0.3656   -1.1973   -2.3104 H   0  0  0  0  0  0
    3.6077    1.1844   -0.8433 H   0  0  0  0  0  0
   -9.3150    0.0601    0.4437 H   0  0  0  0  0  0
   -8.0247    3.9991    0.5114 H   0  0  0  0  0  0
    3.1080    0.6495   -5.0526 H   0  0  0  0  0  0
    4.3454    1.6133   -3.1528 H   0  0  0  0  0  0
    3.1609   -1.5887    0.5128 H   0  0  0  0  0  0
    1.7250   -2.4642   -0.0113 H   0  0  0  0  0  0
    1.7954   -1.7647    1.6032 H   0  0  0  0  0  0
   -0.5315   -1.9286   -5.7727 H   0  0  0  0  0  0
   -0.9563   -1.0751   -4.2931 H   0  0  0  0  0  0
    0.0474   -2.5420   -4.2282 H   0  0  0  0  0  0
  1  6  1  0  0  0
  1  7  1  0  0  0
  2  8  2  0  0  0
  3 17  1  0  0  0
  3 24  1  0  0  0
  4  8  1  0  0  0
  4 12  1  0  0  0
  4 25  1  0  0  0
  5 19  2  0  0  0
  5 20  1  0  0  0
  6  8  1  0  0  0
  6 10  2  0  0  0
  7  9  1  0  0  0
  7 11  2  0  0  0
  9 14  2  0  0  0
  9 15  1  0  0  0
 10 11  1  0  0  0
 10 26  1  0  0  0
 11 27  1  0  0  0
 12 13  1  0  0  0
 12 23  1  0  0  0
 12 28  1  0  0  0
 13 16  2  0  0  0
 13 18  1  0  0  0
 14 19  1  0  0  0
 14 29  1  0  0  0
 15 20  2  0  0  0
 15 30  1  0  0  0
 16 17  1  0  0  0
 16 31  1  0  0  0
 17 21  2  0  0  0
 18 22  2  0  0  0
 18 32  1  0  0  0
 19 33  1  0  0  0
 20 34  1  0  0  0
 21 22  1  0  0  0
 21 35  1  0  0  0
 22 36  1  0  0  0
 23 37  1  0  0  0
 23 38  1  0  0  0
 23 39  1  0  0  0
 24 40  1  0  0  0
 24 41  1  0  0  0
 24 42  1  0  0  0
M  END
> <chembl_id>
CHEMBL1994724

> <chembl_pref_name>
None

> <s_m_source_file>
sdf/inactives_sanitized.sdf

> <i_m_source_file_index>
66

> <i_lp_mmshare_version>
49012

> <i_m_ct_stereo_status>
1

> <i_f3d_flags>
0

> <s_epik_input>
W2NIXTFbY0hdbltjSF1bY0hdYzEtYyhbY0hdW2NIXTIpc2MyQyg9TylbTkhdW0NAQEhdKFtDSDNdKWMzW2NIXWMoT1tDSDNdKVtjSF1bY0hdW2NIXTM=

> <s_epik_cmdline>
J2VwaWtfcHl0aG9uJywgJy1waHQnLCAnMC41JywgJy1waCcsICc3LjUnLCAnLW50JywgJy1tYScsICcyMDAnLCAnLWltYWUnLCAnPGluZmlsZS5tYWU+JywgJy1vbWFlJywgJzxvdXRmaWxlLm1hZT4n

> <r_lp_tautomer_probability>
1

> <r_epik_Ionization_Penalty>
  0.0013

> <r_epik_Ionization_Penalty_Charging>
  0.0000

> <r_epik_Ionization_Penalty_Neutral>
  0.0013

> <r_epik_State_Penalty>
 -0.0000

> <r_epik_Charging_Adjusted_Penalty>
0

> <i_epik_Tot_Q>
0

> <i_epik_Tot_abs_Q>
0

> <s_lp_Force_Field>
OPLS3e

> <r_lp_Energy>
34.381293

> <b_lp_Chiralities_Consistent>
1

> <s_lp_Variant>
sdf/inactives_sanitized.sdf:66-1

$$$$
sdf/inactives_sanitized.sdf:67
                    3D
 Schrodinger Suite 2020-1.
 32 35  0  0  1  0            999 V2000
   -8.4864   -5.3112   -0.0000 Br  0  0  0  0  0  0
   -0.0071   -0.0098   -0.0000 N   0  0  0  0  0  0
   -2.9816   -3.1465   -0.0000 N   0  0  0  0  0  0
   -6.4917   -3.3076   -0.0000 N   0  0  0  0  0  0
   -4.3305   -5.1843   -0.0000 N   0  0  0  0  0  0
   -4.8381    4.7014    0.0000 N   0  0  0  0  0  0
   -2.1329   -0.8185   -0.0000 C   0  0  0  0  0  0
   -3.2330   -1.7864   -0.0000 C   0  0  0  0  0  0
   -2.1834    0.6247   -0.0000 C   0  0  0  0  0  0
   -0.8319    1.1001    0.0000 C   0  0  0  0  0  0
   -5.2137   -2.9066   -0.0000 C   0  0  0  0  0  0
   -4.1606   -3.8571   -0.0000 C   0  0  0  0  0  0
   -4.6145   -1.6087    0.0000 C   0  0  0  0  0  0
   -0.7865   -1.1400   -0.0000 C   0  0  0  0  0  0
   -3.2207    1.5757   -0.0000 C   0  0  0  0  0  0
   -0.5200    2.4660    0.0000 C   0  0  0  0  0  0
   -2.9103    2.9371    0.0000 C   0  0  0  0  0  0
   -6.7005   -4.6545   -0.0000 C   0  0  0  0  0  0
   -1.5839    3.3655    0.0000 C   0  0  0  0  0  0
   -5.6377   -5.5658   -0.0000 C   0  0  0  0  0  0
    1.4469    0.0061    0.0000 C   0  0  0  0  0  0
   -3.9843    3.9202    0.0000 C   0  0  0  0  0  0
   -2.0438   -3.5201   -0.0000 H   0  0  0  0  0  0
   -5.1342   -0.6647    0.0000 H   0  0  0  0  0  0
   -0.3085   -2.1092   -0.0000 H   0  0  0  0  0  0
   -4.2527    1.2617   -0.0000 H   0  0  0  0  0  0
    0.5008    2.8196    0.0000 H   0  0  0  0  0  0
   -1.3576    4.4231    0.0000 H   0  0  0  0  0  0
   -5.8256   -6.6295   -0.0000 H   0  0  0  0  0  0
    1.8407   -1.0113   -0.0000 H   0  0  0  0  0  0
    1.8010    0.5290    0.8891 H   0  0  0  0  0  0
    1.8010    0.5290   -0.8891 H   0  0  0  0  0  0
  1 18  1  0  0  0
  2 10  1  0  0  0
  2 14  1  0  0  0
  2 21  1  0  0  0
  3  8  1  0  0  0
  3 12  1  0  0  0
  3 23  1  0  0  0
  4 11  2  0  0  0
  4 18  1  0  0  0
  5 12  2  0  0  0
  5 20  1  0  0  0
  6 22  3  0  0  0
  7  8  1  0  0  0
  7  9  1  0  0  0
  7 14  2  0  0  0
  8 13  2  0  0  0
  9 10  2  0  0  0
  9 15  1  0  0  0
 10 16  1  0  0  0
 11 12  1  0  0  0
 11 13  1  0  0  0
 13 24  1  0  0  0
 14 25  1  0  0  0
 15 17  2  0  0  0
 15 26  1  0  0  0
 16 19  2  0  0  0
 16 27  1  0  0  0
 17 19  1  0  0  0
 17 22  1  0  0  0
 18 20  2  0  0  0
 19 28  1  0  0  0
 20 29  1  0  0  0
 21 30  1  0  0  0
 21 31  1  0  0  0
 21 32  1  0  0  0
M  END
> <chembl_id>
CHEMBL1978562

> <chembl_pref_name>
None

> <s_m_source_file>
sdf/inactives_sanitized.sdf

> <i_m_source_file_index>
67

> <i_lp_mmshare_version>
49012

> <i_m_ct_stereo_status>
1

> <i_f3d_flags>
0

> <s_epik_input>
QnJjKG4xKVtjSF1uYyhjMTIpW25IXWMoW2NIXTIpLWMzW2NIXW4oW0NIM10pYyhjMzQpW2NIXVtjSF1jKFtjSF00KUMjTg==

> <s_epik_cmdline>
J2VwaWtfcHl0aG9uJywgJy1waHQnLCAnMC41JywgJy1waCcsICc3LjUnLCAnLW50JywgJy1tYScsICcyMDAnLCAnLWltYWUnLCAnPGluZmlsZS5tYWU+JywgJy1vbWFlJywgJzxvdXRmaWxlLm1hZT4n

> <r_lp_tautomer_probability>
1

> <r_epik_Ionization_Penalty>
  0.0001

> <r_epik_Ionization_Penalty_Charging>
  0.0000

> <r_epik_Ionization_Penalty_Neutral>
  0.0001

> <r_epik_State_Penalty>
 -0.0000

> <r_epik_Charging_Adjusted_Penalty>
0

> <i_epik_Tot_Q>
0

> <i_epik_Tot_abs_Q>
0

> <s_lp_Force_Field>
OPLS3e

> <r_lp_Energy>
27.882415

> <b_lp_Chiralities_Consistent>
1

> <s_lp_Variant>
sdf/inactives_sanitized.sdf:67-1

$$$$
sdf/inactives_sanitized.sdf:68
                    3D
 Schrodinger Suite 2020-1.
 17 18  0  0  1  0            999 V2000
    1.2181   -2.5404    0.5887 Br  0  0  0  0  0  0
    4.1652    3.0330   -0.6053 O   0  0  0  0  0  0
    4.5426    0.7856   -0.2932 N   0  0  0  0  0  0
    2.4058    0.0279    0.0569 C   0  0  0  0  0  0
    2.3848    1.3964   -0.1557 C   0  0  0  0  0  0
    3.7782    1.8878   -0.3836 C   0  0  0  0  0  0
    1.2124   -0.6590    0.2939 C   0  0  0  0  0  0
    3.8248   -0.4517   -0.0213 C   0  0  0  0  0  0
    1.1865    2.1121   -0.1384 C   0  0  0  0  0  0
    0.0051    0.0452    0.3139 C   0  0  0  0  0  0
   -0.0076    1.4266    0.0984 C   0  0  0  0  0  0
    5.5459    0.8027   -0.4044 H   0  0  0  0  0  0
    3.9871   -1.1707   -0.8254 H   0  0  0  0  0  0
    4.1749   -0.8982    0.9103 H   0  0  0  0  0  0
    1.1671    3.1796   -0.3039 H   0  0  0  0  0  0
   -0.9219   -0.4782    0.4964 H   0  0  0  0  0  0
   -0.9434    1.9653    0.1151 H   0  0  0  0  0  0
  1  7  1  0  0  0
  2  6  2  0  0  0
  3  6  1  0  0  0
  3  8  1  0  0  0
  3 12  1  0  0  0
  4  5  2  0  0  0
  4  7  1  0  0  0
  4  8  1  0  0  0
  5  6  1  0  0  0
  5  9  1  0  0  0
  7 10  2  0  0  0
  8 13  1  0  0  0
  8 14  1  0  0  0
  9 11  2  0  0  0
  9 15  1  0  0  0
 10 11  1  0  0  0
 10 16  1  0  0  0
 11 17  1  0  0  0
M  END
> <chembl_id>
CHEMBL1984500

> <chembl_pref_name>
None

> <s_m_source_file>
sdf/inactives_sanitized.sdf

> <i_m_source_file_index>
68

> <i_lp_mmshare_version>
49012

> <i_m_ct_stereo_status>
1

> <i_f3d_flags>
0

> <s_epik_input>
QnJjMVtjSF1bY0hdW2NIXWMoYzEyKUMoPU8pW05IXVtDSDJdMg==

> <s_epik_cmdline>
J2VwaWtfcHl0aG9uJywgJy1waHQnLCAnMC41JywgJy1waCcsICc3LjUnLCAnLW50JywgJy1tYScsICcyMDAnLCAnLWltYWUnLCAnPGluZmlsZS5tYWU+JywgJy1vbWFlJywgJzxvdXRmaWxlLm1hZT4n

> <r_lp_tautomer_probability>
1

> <r_epik_Ionization_Penalty>
  0.0000

> <r_epik_Ionization_Penalty_Charging>
  0.0000

> <r_epik_Ionization_Penalty_Neutral>
  0.0000

> <r_epik_State_Penalty>
 -0.0000

> <r_epik_Charging_Adjusted_Penalty>
0

> <i_epik_Tot_Q>
0

> <i_epik_Tot_abs_Q>
0

> <s_lp_Force_Field>
OPLS3e

> <r_lp_Energy>
4.65479

> <b_lp_Chiralities_Consistent>
1

> <s_lp_Variant>
sdf/inactives_sanitized.sdf:68-1

$$$$
sdf/inactives_sanitized.sdf:69
                    3D
 Schrodinger Suite 2020-1.
 44 48  0  0  1  0            999 V2000
   -0.2840    1.0066   -0.5534 O   0  0  0  0  0  0
   -0.4425    0.4600    0.7402 C   0  0  0  0  0  0
    0.3119   -0.8764    0.8954 C   0  0  0  0  0  0
    1.7574   -0.7283    0.7598 N   0  0  0  0  0  0
    2.6638   -0.4062    1.7358 C   0  0  0  0  0  0
    3.9056   -0.3299    1.1165 C   0  0  0  0  0  0
    3.6019   -0.6066   -0.2290 C   0  0  0  0  0  0
    2.3260   -0.8316   -0.4468 N   0  0  0  0  0  0
    5.2333   -0.0252    1.7275 C   0  0  0  0  0  0
    6.4247   -0.0577    0.9820 C   0  0  0  0  0  0
    7.6457    0.2040    1.5298 N   0  0  0  0  0  0
    7.6338    0.4973    2.8350 C   0  0  0  0  0  0
    8.6768    0.7823    3.6640 N   0  0  0  0  0  0
    8.1467    0.9912    4.9236 N   0  0  0  0  0  0
    6.8018    0.8731    4.8592 N   0  0  0  0  0  0
    5.9892    0.9870    6.0629 C   0  0  0  0  0  0
    5.5674   -0.3657    6.6184 C   0  0  0  0  0  0
    4.3454   -0.9256    6.2427 C   0  0  0  0  0  0
    3.9458   -2.1665    6.7325 C   0  0  0  0  0  0
    4.7802   -2.8808    7.6247 C   0  0  0  0  0  0
    4.3647   -4.0929    8.0893 N   0  0  0  0  0  0
    5.1747   -4.7661    8.9434 C   0  0  0  0  0  0
    6.4093   -4.2868    9.3725 C   0  0  0  0  0  0
    6.8492   -3.0498    8.9068 C   0  0  0  0  0  0
    6.0327   -2.3126    8.0124 C   0  0  0  0  0  0
    6.4105   -1.0494    7.4964 C   0  0  0  0  0  0
    6.4267    0.5342    3.5716 C   0  0  0  0  0  0
    5.2173    0.2792    3.0594 N   0  0  0  0  0  0
   -0.7535    1.8432   -0.5930 H   0  0  0  0  0  0
   -0.0282    1.1977    1.4288 H   0  0  0  0  0  0
   -1.4985    0.3511    0.9889 H   0  0  0  0  0  0
    0.1330   -1.2548    1.9030 H   0  0  0  0  0  0
   -0.0778   -1.6544    0.2365 H   0  0  0  0  0  0
    2.3542   -0.2655    2.7612 H   0  0  0  0  0  0
    4.3116   -0.6363   -1.0424 H   0  0  0  0  0  0
    6.4239   -0.3014   -0.0700 H   0  0  0  0  0  0
    6.5339    1.5606    6.8160 H   0  0  0  0  0  0
    5.1075    1.5791    5.8118 H   0  0  0  0  0  0
    3.6972   -0.3974    5.5582 H   0  0  0  0  0  0
    2.9976   -2.5885    6.4313 H   0  0  0  0  0  0
    4.8108   -5.7224    9.2895 H   0  0  0  0  0  0
    7.0159   -4.8641   10.0549 H   0  0  0  0  0  0
    7.8024   -2.6495    9.2215 H   0  0  0  0  0  0
    7.3604   -0.6226    7.7868 H   0  0  0  0  0  0
  1  2  1  0  0  0
  1 29  1  0  0  0
  2  3  1  0  0  0
  2 30  1  0  0  0
  2 31  1  0  0  0
  3  4  1  0  0  0
  3 32  1  0  0  0
  3 33  1  0  0  0
  4  5  1  0  0  0
  4  8  1  0  0  0
  5  6  2  0  0  0
  5 34  1  0  0  0
  6  7  1  0  0  0
  6  9  1  0  0  0
  7  8  2  0  0  0
  7 35  1  0  0  0
  9 10  2  0  0  0
  9 28  1  0  0  0
 10 11  1  0  0  0
 10 36  1  0  0  0
 11 12  2  0  0  0
 12 13  1  0  0  0
 12 27  1  0  0  0
 13 14  2  0  0  0
 14 15  1  0  0  0
 15 16  1  0  0  0
 15 27  1  0  0  0
 16 17  1  0  0  0
 16 37  1  0  0  0
 16 38  1  0  0  0
 17 18  2  0  0  0
 17 26  1  0  0  0
 18 19  1  0  0  0
 18 39  1  0  0  0
 19 20  2  0  0  0
 19 40  1  0  0  0
 20 21  1  0  0  0
 20 25  1  0  0  0
 21 22  2  0  0  0
 22 23  1  0  0  0
 22 41  1  0  0  0
 23 24  2  0  0  0
 23 42  1  0  0  0
 24 25  1  0  0  0
 24 43  1  0  0  0
 25 26  2  0  0  0
 26 44  1  0  0  0
 27 28  2  0  0  0
M  END
> <chembl_id>
CHEMBL2001019

> <chembl_pref_name>
PF-04217903

> <s_m_source_file>
sdf/inactives_sanitized.sdf

> <i_m_source_file_index>
69

> <i_lp_mmshare_version>
49012

> <i_m_ct_stereo_status>
1

> <i_f3d_flags>
0

> <s_epik_input>
W09IXVtDSDJdW0NIMl1uMVtjSF1jKFtjSF1uMSktYyhbY0hdbjIpbmMoYzIzKW4obm4zKVtDSDJdYyhbY0hdW2NIXTQpW2NIXWMoYzQ1KVtjSF1bY0hdW2NIXW41

> <s_epik_cmdline>
J2VwaWtfcHl0aG9uJywgJy1waHQnLCAnMC41JywgJy1waCcsICc3LjUnLCAnLW50JywgJy1tYScsICcyMDAnLCAnLWltYWUnLCAnPGluZmlsZS5tYWU+JywgJy1vbWFlJywgJzxvdXRmaWxlLm1hZT4n

> <r_lp_tautomer_probability>
1

> <r_epik_Ionization_Penalty>
  0.0007

> <r_epik_Ionization_Penalty_Charging>
  0.0000

> <r_epik_Ionization_Penalty_Neutral>
  0.0007

> <r_epik_State_Penalty>
 -0.0000

> <r_epik_Charging_Adjusted_Penalty>
0

> <i_epik_Tot_Q>
0

> <i_epik_Tot_abs_Q>
0

> <s_lp_Force_Field>
OPLS3e

> <r_lp_Energy>
34.765262

> <b_lp_Chiralities_Consistent>
1

> <s_lp_Variant>
sdf/inactives_sanitized.sdf:69-1

$$$$
sdf/inactives_sanitized.sdf:70
                    3D
 Schrodinger Suite 2020-1.
 69 72  0  0  1  0            999 V2000
    3.3092   -1.2931    0.9951 C   0  0  0  0  0  0
    4.3405   -0.5572    0.3631 C   0  0  0  0  0  0
   -0.2589    1.7407   -0.3759 C   0  0  0  0  0  0
   -5.8853    6.3837   -0.1765 C   0  0  0  0  0  0
   -5.1860    6.3649    0.9973 N   0  0  0  0  0  0
   -6.4842    8.2528    1.7685 N   0  0  0  0  0  0
    6.7077    0.0579    1.3704 N   0  3  0  0  0  0
   -6.8921    7.3229   -0.4185 C   0  0  0  0  0  0
    1.9779   -0.8839    0.8150 C   0  0  0  0  0  0
   -7.1674    8.2576    0.5935 C   0  0  0  0  0  0
    0.2875    0.5415   -0.0889 N   0  0  0  0  0  0
    7.3245    2.3749    3.0776 N   0  0  1  0  0  0
    5.8330   -0.8946    0.5103 C   0  0  0  0  0  0
   -1.6040    1.6425   -0.3957 N   0  0  0  0  0  0
   -5.5241    7.3049    1.9142 C   0  0  0  0  0  0
    1.6509    0.2129    0.0167 C   0  0  0  0  0  0
    0.3809    2.7775   -0.5597 O   0  0  0  0  0  0
    3.9958    0.4966   -0.4921 C   0  0  0  0  0  0
   -5.5946    5.4538   -1.1591 O   0  0  0  0  0  0
   -2.5619    2.6480   -0.6263 C   0  0  0  0  0  0
   -8.1508    9.2508    0.4686 N   0  0  0  0  0  0
    6.8185    1.4891    0.7929 C   0  0  0  0  0  0
    6.2626    0.1105    2.8499 C   0  0  0  0  0  0
    7.2409    1.0172    3.6353 C   0  0  0  0  0  0
    7.7808    2.3106    1.6828 C   0  0  0  0  0  0
   -4.5957    4.5224   -0.9906 C   0  0  0  0  0  0
    2.6721    0.8881   -0.6607 C   0  0  0  0  0  0
   -2.2919    3.8645   -1.2746 C   0  0  0  0  0  0
   -3.8601    2.3706   -0.1894 C   0  0  0  0  0  0
   -3.3091    4.7982   -1.4516 C   0  0  0  0  0  0
   -4.8752    3.3058   -0.3689 C   0  0  0  0  0  0
    6.1393    3.2231    3.2644 C   0  0  0  0  0  0
   -8.9467    9.4026   -0.7406 C   0  0  0  0  0  0
    5.8301    3.5047    4.7447 C   0  0  0  0  0  0
    3.5853   -2.5460    1.8424 C   0  0  0  0  0  0
    4.3263   -2.2380    2.9033 F   0  0  0  0  0  0
    2.4680   -3.1191    2.2946 F   0  0  0  0  0  0
    4.2273   -3.4585    1.1124 F   0  0  0  0  0  0
   -7.4268    7.3151   -1.3566 H   0  0  0  0  0  0
    1.1770   -1.4228    1.3016 H   0  0  0  0  0  0
   -0.3502   -0.1983    0.1659 H   0  0  0  0  0  0
    6.3192   -0.8917   -0.4666 H   0  0  0  0  0  0
    6.0155   -1.8710    0.9545 H   0  0  0  0  0  0
   -1.9923    0.7462   -0.1414 H   0  0  0  0  0  0
   -4.9778    7.2988    2.8461 H   0  0  0  0  0  0
    4.7608    1.0295   -1.0373 H   0  0  0  0  0  0
   -8.2931    9.9005    1.2288 H   0  0  0  0  0  0
    7.1971    1.3837   -0.2245 H   0  0  0  0  0  0
    5.8210    1.9250    0.7683 H   0  0  0  0  0  0
    5.2276    0.4546    2.8810 H   0  0  0  0  0  0
    6.3234   -0.9141    3.2146 H   0  0  0  0  0  0
    6.9513    1.0548    4.6851 H   0  0  0  0  0  0
    8.2382    0.5738    3.6307 H   0  0  0  0  0  0
    7.8779    3.3217    1.2850 H   0  0  0  0  0  0
    8.7838    1.8819    1.6508 H   0  0  0  0  0  0
    2.4601    1.7074   -1.3311 H   0  0  0  0  0  0
   -1.3123    4.1051   -1.6565 H   0  0  0  0  0  0
   -4.0885    1.4348    0.3007 H   0  0  0  0  0  0
   -3.0996    5.7366   -1.9436 H   0  0  0  0  0  0
   -5.8748    3.0920   -0.0194 H   0  0  0  0  0  0
    6.3244    4.1817    2.7771 H   0  0  0  0  0  0
    5.2634    2.7907    2.7805 H   0  0  0  0  0  0
   -9.6570   10.2202   -0.6166 H   0  0  0  0  0  0
   -9.5103    8.4935   -0.9533 H   0  0  0  0  0  0
   -8.3111    9.6316   -1.5969 H   0  0  0  0  0  0
    5.0357    4.2462    4.8328 H   0  0  0  0  0  0
    6.7032    3.8974    5.2676 H   0  0  0  0  0  0
    5.4932    2.6115    5.2706 H   0  0  0  0  0  0
    7.6447   -0.3201    1.3688 H   0  0  0  0  0  0
  1  9  2  0  0  0
  1 35  1  0  0  0
  1  2  1  0  0  0
  2 13  1  0  0  0
  2 18  2  0  0  0
  3 14  1  0  0  0
  3 17  2  0  0  0
  3 11  1  0  0  0
  4  5  2  0  0  0
  4  8  1  0  0  0
  4 19  1  0  0  0
  5 15  1  0  0  0
  6 15  2  0  0  0
  6 10  1  0  0  0
  7 13  1  0  0  0
  7 22  1  0  0  0
  7 23  1  0  0  0
  7 69  1  0  0  0
  8 10  2  0  0  0
  8 39  1  0  0  0
  9 16  1  0  0  0
  9 40  1  0  0  0
 10 21  1  0  0  0
 11 16  1  0  0  0
 11 41  1  0  0  0
 12 25  1  0  0  0
 12 32  1  0  0  0
 12 24  1  0  0  0
 13 42  1  0  0  0
 13 43  1  0  0  0
 14 20  1  0  0  0
 14 44  1  0  0  0
 15 45  1  0  0  0
 16 27  2  0  0  0
 18 27  1  0  0  0
 18 46  1  0  0  0
 19 26  1  0  0  0
 20 28  2  0  0  0
 20 29  1  0  0  0
 21 33  1  0  0  0
 21 47  1  0  0  0
 22 25  1  0  0  0
 22 48  1  0  0  0
 22 49  1  0  0  0
 23 24  1  0  0  0
 23 50  1  0  0  0
 23 51  1  0  0  0
 24 52  1  0  0  0
 24 53  1  0  0  0
 25 54  1  0  0  0
 25 55  1  0  0  0
 26 31  1  0  0  0
 26 30  2  0  0  0
 27 56  1  0  0  0
 28 30  1  0  0  0
 28 57  1  0  0  0
 29 31  2  0  0  0
 29 58  1  0  0  0
 30 59  1  0  0  0
 31 60  1  0  0  0
 32 34  1  0  0  0
 32 61  1  0  0  0
 32 62  1  0  0  0
 33 63  1  0  0  0
 33 64  1  0  0  0
 33 65  1  0  0  0
 34 66  1  0  0  0
 34 67  1  0  0  0
 34 68  1  0  0  0
 35 36  1  0  0  0
 35 37  1  0  0  0
 35 38  1  0  0  0
M  CHG  1   7   1
M  END
> <chembl_id>
CHEMBL574738

> <chembl_pref_name>
AST-487

> <s_m_source_file>
sdf/inactives_sanitized.sdf

> <i_m_source_file_index>
70

> <i_lp_mmshare_version>
49012

> <i_m_ct_stereo_status>
1

> <i_f3d_flags>
0

> <s_epik_input>
W0NIMl0xW0NIMl1OKFtDSDJdW0NIM10pW0NIMl1bQ0gyXU4xW0NIMl1jKGMyQyhGKShGKUYpW2NIXVtjSF1jKFtjSF0yKVtOSF1DKD1PKVtOSF1jM1tjSF1bY0hdYyhbY0hdW2NIXTMpT2M0bltjSF1uYyhbY0hdNClbTkhdW0NIM10=

> <s_epik_cmdline>
J2VwaWtfcHl0aG9uJywgJy1waHQnLCAnMC41JywgJy1waCcsICc3LjUnLCAnLW50JywgJy1tYScsICcyMDAnLCAnLWltYWUnLCAnPGluZmlsZS5tYWU+JywgJy1vbWFlJywgJzxvdXRmaWxlLm1hZT4n

> <r_lp_tautomer_probability>
1

> <r_epik_Ionization_Penalty>
  0.0435

> <r_epik_Ionization_Penalty_Charging>
  0.0421

> <r_epik_Ionization_Penalty_Neutral>
  0.0014

> <r_epik_State_Penalty>
 -0.0000

> <r_epik_Charging_Adjusted_Penalty>
0.0420882793417938

> <i_epik_Tot_Q>
1

> <i_epik_Tot_abs_Q>
1

> <s_lp_Force_Field>
OPLS3e

> <r_lp_Energy>
77.51073

> <b_lp_Chiralities_Consistent>
1

> <s_lp_Variant>
sdf/inactives_sanitized.sdf:70-1

$$$$
sdf/inactives_sanitized.sdf:71
                    3D
 Schrodinger Suite 2020-1.
 41 44  0  0  1  0            999 V2000
    6.2471    2.0491    5.0093 Cl  0  0  0  0  0  0
    1.8597    0.6793   -2.5014 F   0  0  0  0  0  0
    0.9583   -0.4575    2.0428 F   0  0  0  0  0  0
    0.0292    0.2762   -0.4632 O   0  0  0  0  0  0
   -3.8320    2.7531   -1.0444 N   0  0  0  0  0  0
   -1.9983    3.9713   -0.0422 N   0  0  0  0  0  0
    5.5109   -0.2505    0.4444 N   0  0  0  0  0  0
    7.6074   -0.3453    1.4742 N   0  0  0  0  0  0
    8.0540    0.6921    3.6056 N   0  0  0  0  0  0
    9.7369   -0.4613    2.4493 N   0  0  0  0  0  0
   -1.9131    1.6064   -0.7309 C   0  0  0  0  0  0
   -0.5744    1.5075   -0.3025 C   0  0  0  0  0  0
    1.3763    0.1339   -0.2301 C   0  0  0  0  0  0
   -2.5491    2.8719   -0.5657 C   0  0  0  0  0  0
   -2.8749    0.7160   -1.3328 C   0  0  0  0  0  0
    2.2931    0.3411   -1.2650 C   0  0  0  0  0  0
    1.8364   -0.2332    1.0381 C   0  0  0  0  0  0
    4.1273   -0.1259    0.2484 C   0  0  0  0  0  0
    3.6607    0.2069   -1.0256 C   0  0  0  0  0  0
    3.2049   -0.3644    1.2747 C   0  0  0  0  0  0
    0.0279    2.6479    0.2532 C   0  0  0  0  0  0
   -4.0240    1.4732   -1.4997 C   0  0  0  0  0  0
    6.3186    0.0806    1.5423 C   0  0  0  0  0  0
   -0.7085    3.8275    0.3588 C   0  0  0  0  0  0
    5.8552    0.8382    2.6285 C   0  0  0  0  0  0
    8.4183   -0.0229    2.5128 C   0  0  0  0  0  0
    6.7656    1.1212    3.6504 C   0  0  0  0  0  0
   -2.6638   -0.7341   -1.7007 C   0  0  0  0  0  0
   -4.5503    3.4621   -1.0776 H   0  0  0  0  0  0
    6.0125   -0.6643   -0.3280 H   0  0  0  0  0  0
   10.3694   -0.2359    3.2033 H   0  0  0  0  0  0
   10.0447   -0.9894    1.6459 H   0  0  0  0  0  0
    4.3575    0.3759   -1.8345 H   0  0  0  0  0  0
    3.5402   -0.6609    2.2577 H   0  0  0  0  0  0
    1.0499    2.6275    0.6013 H   0  0  0  0  0  0
   -4.9830    1.1997   -1.9150 H   0  0  0  0  0  0
   -0.2521    4.7084    0.7862 H   0  0  0  0  0  0
    4.8438    1.2115    2.6821 H   0  0  0  0  0  0
   -3.5451   -1.1718   -2.1705 H   0  0  0  0  0  0
   -2.4329   -1.3397   -0.8240 H   0  0  0  0  0  0
   -1.8359   -0.8524   -2.4000 H   0  0  0  0  0  0
  1 27  1  0  0  0
  2 16  1  0  0  0
  3 17  1  0  0  0
  4 12  1  0  0  0
  4 13  1  0  0  0
  5 14  1  0  0  0
  5 22  1  0  0  0
  5 29  1  0  0  0
  6 14  2  0  0  0
  6 24  1  0  0  0
  7 18  1  0  0  0
  7 23  1  0  0  0
  7 30  1  0  0  0
  8 23  2  0  0  0
  8 26  1  0  0  0
  9 26  2  0  0  0
  9 27  1  0  0  0
 10 26  1  0  0  0
 10 31  1  0  0  0
 10 32  1  0  0  0
 11 12  2  0  0  0
 11 14  1  0  0  0
 11 15  1  0  0  0
 12 21  1  0  0  0
 13 16  2  0  0  0
 13 17  1  0  0  0
 15 22  2  0  0  0
 15 28  1  0  0  0
 16 19  1  0  0  0
 17 20  2  0  0  0
 18 19  2  0  0  0
 18 20  1  0  0  0
 19 33  1  0  0  0
 20 34  1  0  0  0
 21 24  2  0  0  0
 21 35  1  0  0  0
 22 36  1  0  0  0
 23 25  1  0  0  0
 24 37  1  0  0  0
 25 27  2  0  0  0
 25 38  1  0  0  0
 28 39  1  0  0  0
 28 40  1  0  0  0
 28 41  1  0  0  0
M  END
> <chembl_id>
CHEMBL1971943

> <chembl_pref_name>
BAY-549

> <s_m_source_file>
sdf/inactives_sanitized.sdf

> <i_m_source_file_index>
71

> <i_lp_mmshare_version>
49012

> <i_m_ct_stereo_status>
1

> <i_f3d_flags>
0

> <s_epik_input>
Q2xjKFtjSF0xKW5jKFtOSDJdKW5jMVtOSF1jKFtjSF1jMkYpW2NIXWMoRiljMk9jM1tjSF1bY0hdbmMoYzM0KVtuSF1bY0hdYzRbQ0gzXQ==

> <s_epik_cmdline>
J2VwaWtfcHl0aG9uJywgJy1waHQnLCAnMC41JywgJy1waCcsICc3LjUnLCAnLW50JywgJy1tYScsICcyMDAnLCAnLWltYWUnLCAnPGluZmlsZS5tYWU+JywgJy1vbWFlJywgJzxvdXRmaWxlLm1hZT4n

> <r_lp_tautomer_probability>
1

> <r_epik_Ionization_Penalty>
  0.0045

> <r_epik_Ionization_Penalty_Charging>
  0.0000

> <r_epik_Ionization_Penalty_Neutral>
  0.0045

> <r_epik_State_Penalty>
 -0.0000

> <r_epik_Charging_Adjusted_Penalty>
0

> <i_epik_Tot_Q>
0

> <i_epik_Tot_abs_Q>
0

> <s_lp_Force_Field>
OPLS3e

> <r_lp_Energy>
26.549925

> <b_lp_Chiralities_Consistent>
1

> <s_lp_Variant>
sdf/inactives_sanitized.sdf:71-1

$$$$
sdf/inactives_sanitized.sdf:72
                    3D
 Schrodinger Suite 2020-1.
 27 29  0  0  1  0            999 V2000
    6.5541   -3.7704    1.6370 Br  0  0  0  0  0  0
    2.3926    1.5261   -0.0255 N   0  0  0  0  0  0
    0.2448    0.5019    0.2754 N   0  0  0  0  0  0
   -0.2205    2.7239   -0.5279 N   0  0  0  0  0  0
   -2.5097    3.4722   -0.7554 N   0  0  0  0  0  0
    3.6457   -0.8917    0.7233 C   0  0  0  0  0  0
    4.4347    0.2473    0.3827 C   0  0  0  0  0  0
    1.6493    0.4365    0.3004 C   0  0  0  0  0  0
    2.2311   -0.7786    0.6764 C   0  0  0  0  0  0
    3.7402    1.4212    0.0177 C   0  0  0  0  0  0
    4.2997   -2.0915    1.0967 C   0  0  0  0  0  0
   -0.6633    1.5162   -0.0764 C   0  0  0  0  0  0
    5.8469    0.1590    0.4235 C   0  0  0  0  0  0
    5.6919   -2.1511    1.1299 C   0  0  0  0  0  0
    6.4571   -1.0365    0.7962 C   0  0  0  0  0  0
   -2.0313    1.2443    0.0493 C   0  0  0  0  0  0
   -1.1666    3.6440   -0.8455 C   0  0  0  0  0  0
   -2.9240    2.2603   -0.3036 C   0  0  0  0  0  0
   -0.2030   -0.3541    0.5672 H   0  0  0  0  0  0
    1.6217   -1.6337    0.9332 H   0  0  0  0  0  0
    4.2942    2.3099   -0.2480 H   0  0  0  0  0  0
    3.7112   -2.9597    1.3560 H   0  0  0  0  0  0
    6.4452    1.0209    0.1654 H   0  0  0  0  0  0
    7.5353   -1.0977    0.8261 H   0  0  0  0  0  0
   -2.3920    0.2900    0.4053 H   0  0  0  0  0  0
   -0.8173    4.6009   -1.2039 H   0  0  0  0  0  0
   -3.9910    2.1111   -0.2268 H   0  0  0  0  0  0
  1 14  1  0  0  0
  2  8  2  0  0  0
  2 10  1  0  0  0
  3  8  1  0  0  0
  3 12  1  0  0  0
  3 19  1  0  0  0
  4 12  2  0  0  0
  4 17  1  0  0  0
  5 17  2  0  0  0
  5 18  1  0  0  0
  6  7  1  0  0  0
  6  9  2  0  0  0
  6 11  1  0  0  0
  7 10  2  0  0  0
  7 13  1  0  0  0
  8  9  1  0  0  0
  9 20  1  0  0  0
 10 21  1  0  0  0
 11 14  2  0  0  0
 11 22  1  0  0  0
 12 16  1  0  0  0
 13 15  2  0  0  0
 13 23  1  0  0  0
 14 15  1  0  0  0
 15 24  1  0  0  0
 16 18  2  0  0  0
 16 25  1  0  0  0
 17 26  1  0  0  0
 18 27  1  0  0  0
M  END
> <chembl_id>
CHEMBL1984686

> <chembl_pref_name>
None

> <s_m_source_file>
sdf/inactives_sanitized.sdf

> <i_m_source_file_index>
72

> <i_lp_mmshare_version>
49012

> <i_m_ct_stereo_status>
1

> <i_f3d_flags>
0

> <s_epik_input>
QnJjKFtjSF0xKVtjSF1bY0hdYyhjMTIpW2NIXW5jKFtjSF0yKVtOSF1jM25bY0hdbltjSF1bY0hdMw==

> <s_epik_cmdline>
J2VwaWtfcHl0aG9uJywgJy1waHQnLCAnMC41JywgJy1waCcsICc3LjUnLCAnLW50JywgJy1tYScsICcyMDAnLCAnLWltYWUnLCAnPGluZmlsZS5tYWU+JywgJy1vbWFlJywgJzxvdXRmaWxlLm1hZT4n

> <r_lp_tautomer_probability>
1

> <r_epik_Ionization_Penalty>
  0.0040

> <r_epik_Ionization_Penalty_Charging>
  0.0000

> <r_epik_Ionization_Penalty_Neutral>
  0.0040

> <r_epik_State_Penalty>
 -0.0000

> <r_epik_Charging_Adjusted_Penalty>
0

> <i_epik_Tot_Q>
0

> <i_epik_Tot_abs_Q>
0

> <s_lp_Force_Field>
OPLS3e

> <r_lp_Energy>
27.756364

> <b_lp_Chiralities_Consistent>
1

> <s_lp_Variant>
sdf/inactives_sanitized.sdf:72-1

$$$$
sdf/inactives_sanitized.sdf:73
                    3D
 Schrodinger Suite 2020-1.
 54 57  0  0  1  0            999 V2000
   -4.3766    7.8169   -3.5675 F   0  0  0  0  0  0
   -8.4840    1.0018    0.7606 O   0  0  0  0  0  0
    2.0997    1.6516    2.2508 O   0  0  0  0  0  0
   -4.8428    1.2322    0.5798 N   0  0  0  0  0  0
   -6.3381    2.7312   -0.2609 N   0  0  0  0  0  0
   -1.9436    1.1719   -0.1771 N   0  0  0  0  0  0
   -6.7988   -0.4650    1.6017 N   0  0  0  0  0  0
    0.1351    2.3883   -0.1869 N   0  0  0  0  0  0
    0.0627   -0.0049   -0.3261 N   0  0  0  0  0  0
   -4.1246    2.2569   -0.0170 C   0  0  0  0  0  0
   -5.1099    3.1289   -0.5298 C   0  0  0  0  0  0
   -6.1985    1.5638    0.4078 C   0  0  0  0  0  0
   -2.6272    2.3448   -0.0747 C   0  0  0  0  0  0
   -7.1525    0.6731    0.9385 C   0  0  0  0  0  0
   -4.9151    4.3765   -1.3304 C   0  0  0  0  0  0
   -4.4780    0.0919    1.2608 C   0  0  0  0  0  0
   -1.9592    3.5744   -0.0225 C   0  0  0  0  0  0
   -5.4817   -0.7366    1.7555 C   0  0  0  0  0  0
   -5.6351    5.5367   -1.0216 C   0  0  0  0  0  0
   -4.0205    4.3836   -2.4061 C   0  0  0  0  0  0
   -0.5881    1.2348   -0.2253 C   0  0  0  0  0  0
   -0.5653    3.5466   -0.0835 C   0  0  0  0  0  0
   -5.4531    6.6944   -1.7737 C   0  0  0  0  0  0
   -3.8381    5.5414   -3.1577 C   0  0  0  0  0  0
   -4.5544    6.6925   -2.8381 C   0  0  0  0  0  0
   -9.4878    0.1305    1.2759 C   0  0  0  0  0  0
    1.5000   -0.1742   -0.1017 C   0  0  0  0  0  0
    1.8972   -0.6445    1.3310 C   0  0  0  0  0  0
    1.4880    0.3868    2.4230 C   0  0  0  0  0  0
    1.2145   -1.9981    1.6509 C   0  0  0  0  0  0
    3.4296   -0.8635    1.3642 C   0  0  0  0  0  0
    1.7886    2.2392    2.9431 H   0  0  0  0  0  0
   -0.5115   -0.8346   -0.2881 H   0  0  0  0  0  0
   -3.4288   -0.1178    1.3961 H   0  0  0  0  0  0
   -2.4904    4.5102    0.0697 H   0  0  0  0  0  0
   -5.2351   -1.6401    2.2940 H   0  0  0  0  0  0
   -6.3330    5.5444   -0.1968 H   0  0  0  0  0  0
   -3.4649    3.4929   -2.6623 H   0  0  0  0  0  0
    0.0098    4.4602   -0.0472 H   0  0  0  0  0  0
   -6.0073    7.5897   -1.5323 H   0  0  0  0  0  0
   -3.1448    5.5460   -3.9858 H   0  0  0  0  0  0
  -10.4728    0.5322    1.0389 H   0  0  0  0  0  0
   -9.4175    0.0401    2.3609 H   0  0  0  0  0  0
   -9.4194   -0.8639    0.8321 H   0  0  0  0  0  0
    1.8456   -0.9039   -0.8353 H   0  0  0  0  0  0
    2.0367    0.7403   -0.3576 H   0  0  0  0  0  0
    1.7560    0.0204    3.4151 H   0  0  0  0  0  0
    0.4071    0.5312    2.4380 H   0  0  0  0  0  0
    1.5391   -2.3937    2.6145 H   0  0  0  0  0  0
    1.4454   -2.7520    0.8968 H   0  0  0  0  0  0
    0.1285   -1.9049    1.6940 H   0  0  0  0  0  0
    3.7684   -1.1808    2.3515 H   0  0  0  0  0  0
    3.9746    0.0473    1.1123 H   0  0  0  0  0  0
    3.7408   -1.6297    0.6526 H   0  0  0  0  0  0
  1 25  1  0  0  0
  2 14  1  0  0  0
  2 26  1  0  0  0
  3 29  1  0  0  0
  3 32  1  0  0  0
  4 10  1  0  0  0
  4 12  1  0  0  0
  4 16  1  0  0  0
  5 11  1  0  0  0
  5 12  2  0  0  0
  6 13  2  0  0  0
  6 21  1  0  0  0
  7 14  2  0  0  0
  7 18  1  0  0  0
  8 21  2  0  0  0
  8 22  1  0  0  0
  9 21  1  0  0  0
  9 27  1  0  0  0
  9 33  1  0  0  0
 10 11  2  0  0  0
 10 13  1  0  0  0
 11 15  1  0  0  0
 12 14  1  0  0  0
 13 17  1  0  0  0
 15 19  2  0  0  0
 15 20  1  0  0  0
 16 18  2  0  0  0
 16 34  1  0  0  0
 17 22  2  0  0  0
 17 35  1  0  0  0
 18 36  1  0  0  0
 19 23  1  0  0  0
 19 37  1  0  0  0
 20 24  2  0  0  0
 20 38  1  0  0  0
 22 39  1  0  0  0
 23 25  2  0  0  0
 23 40  1  0  0  0
 24 25  1  0  0  0
 24 41  1  0  0  0
 26 42  1  0  0  0
 26 43  1  0  0  0
 26 44  1  0  0  0
 27 28  1  0  0  0
 27 45  1  0  0  0
 27 46  1  0  0  0
 28 29  1  0  0  0
 28 30  1  0  0  0
 28 31  1  0  0  0
 29 47  1  0  0  0
 29 48  1  0  0  0
 30 49  1  0  0  0
 30 50  1  0  0  0
 30 51  1  0  0  0
 31 52  1  0  0  0
 31 53  1  0  0  0
 31 54  1  0  0  0
M  END
> <chembl_id>
CHEMBL2005792

> <chembl_pref_name>
None

> <s_m_source_file>
sdf/inactives_sanitized.sdf

> <i_m_source_file_index>
73

> <i_lp_mmshare_version>
49012

> <i_m_ct_stereo_status>
1

> <i_f3d_flags>
0

> <s_epik_input>
W2NIXTFbY0hdbmMoT1tDSDNdKWMobjEyKW5jKC1jM1tjSF1bY0hdYyhGKVtjSF1bY0hdMyljMi1jNG5jKG5bY0hdW2NIXTQpW05IXVtDSDJdQyhbQ0gzXSkoW0NIM10pW0NIMl1bT0hd

> <s_epik_cmdline>
J2VwaWtfcHl0aG9uJywgJy1waHQnLCAnMC41JywgJy1waCcsICc3LjUnLCAnLW50JywgJy1tYScsICcyMDAnLCAnLWltYWUnLCAnPGluZmlsZS5tYWU+JywgJy1vbWFlJywgJzxvdXRmaWxlLm1hZT4n

> <r_lp_tautomer_probability>
1

> <r_epik_Ionization_Penalty>
  0.0002

> <r_epik_Ionization_Penalty_Charging>
  0.0000

> <r_epik_Ionization_Penalty_Neutral>
  0.0002

> <r_epik_State_Penalty>
 -0.0000

> <r_epik_Charging_Adjusted_Penalty>
2.6014967985565e-06

> <i_epik_Tot_Q>
0

> <i_epik_Tot_abs_Q>
0

> <s_lp_Force_Field>
OPLS3e

> <r_lp_Energy>
43.669204

> <b_lp_Chiralities_Consistent>
1

> <s_lp_Variant>
sdf/inactives_sanitized.sdf:73-1

$$$$
sdf/inactives_sanitized.sdf:74
                    3D
 Schrodinger Suite 2020-1.
 41 42  0  0  1  0            999 V2000
   -8.1012   -0.2208   -3.7900 O   0  0  0  0  0  0
   -6.3888    0.6427   -4.9109 O   0  5  0  0  0  0
   -4.8197   -0.6637   -1.3237 N   0  3  2  0  0  0
   -6.2046    0.5029   -2.5371 C   0  0  2  0  0  0
   -4.6934    0.2274   -2.5669 C   0  0  0  0  0  0
   -6.3443   -0.6071   -1.4837 C   0  0  0  0  0  0
   -4.2396   -0.1197   -0.0040 C   0  0  0  0  0  0
   -2.7197   -0.0921    0.0170 C   0  0  0  0  0  0
   -6.9580    0.2822   -3.8571 C   0  0  0  0  0  0
   -2.0379    1.0984   -0.2456 C   0  0  0  0  0  0
   -2.0077   -1.2543    0.3220 C   0  0  0  0  0  0
    0.0642   -0.0437    0.0676 C   0  0  0  0  0  0
   -0.6461    1.1226   -0.2243 C   0  0  0  0  0  0
   -0.6155   -1.2319    0.3448 C   0  0  0  0  0  0
    1.5193   -0.0210    0.0781 C   0  0  0  0  0  0
    2.7406   -0.0014    0.0655 C   0  0  0  0  0  0
    4.2131    0.0184    0.0279 C   0  0  0  0  0  0
    4.8046   -0.2895   -1.3612 C   0  0  0  0  0  0
    6.3431   -0.2710   -1.3695 C   0  0  0  0  0  0
    6.9377   -0.5814   -2.7500 C   0  0  0  0  0  0
   -6.4775    1.4989   -2.1863 H   0  0  0  0  0  0
   -4.0299    1.0682   -2.3619 H   0  0  0  0  0  0
   -4.3163   -0.4028   -3.3751 H   0  0  0  0  0  0
   -6.6669   -1.5894   -1.8353 H   0  0  0  0  0  0
   -6.8092   -0.3399   -0.5335 H   0  0  0  0  0  0
   -4.6759    0.8732    0.1241 H   0  0  0  0  0  0
   -4.6410   -0.7847    0.7626 H   0  0  0  0  0  0
   -2.5825    2.0035   -0.4729 H   0  0  0  0  0  0
   -2.5294   -2.1762    0.5352 H   0  0  0  0  0  0
   -0.1293    2.0482   -0.4373 H   0  0  0  0  0  0
   -0.0748   -2.1393    0.5755 H   0  0  0  0  0  0
    4.5359    1.0023    0.3699 H   0  0  0  0  0  0
    4.5676   -0.7057    0.7623 H   0  0  0  0  0  0
    4.4576   -1.2675   -1.7012 H   0  0  0  0  0  0
    4.4340    0.4353   -2.0890 H   0  0  0  0  0  0
    6.7001    0.7054   -1.0384 H   0  0  0  0  0  0
    6.7218   -0.9956   -0.6471 H   0  0  0  0  0  0
    8.0274   -0.5714   -2.7153 H   0  0  0  0  0  0
    6.6239    0.1546   -3.4911 H   0  0  0  0  0  0
    6.6272   -1.5655   -3.1030 H   0  0  0  0  0  0
   -4.4678   -1.5937   -1.5022 H   0  0  0  0  0  0
  1  9  2  0  0  0
  2  9  1  0  0  0
  3  5  1  0  0  0
  3  6  1  0  0  0
  3  7  1  0  0  0
  3 41  1  0  0  0
  4  5  1  0  0  0
  4  6  1  0  0  0
  4  9  1  0  0  0
  4 21  1  0  0  0
  5 22  1  0  0  0
  5 23  1  0  0  0
  6 24  1  0  0  0
  6 25  1  0  0  0
  7  8  1  0  0  0
  7 26  1  0  0  0
  7 27  1  0  0  0
  8 10  2  0  0  0
  8 11  1  0  0  0
 10 13  1  0  0  0
 10 28  1  0  0  0
 11 14  2  0  0  0
 11 29  1  0  0  0
 12 13  2  0  0  0
 12 14  1  0  0  0
 12 15  1  0  0  0
 13 30  1  0  0  0
 14 31  1  0  0  0
 15 16  3  0  0  0
 16 17  1  0  0  0
 17 18  1  0  0  0
 17 32  1  0  0  0
 17 33  1  0  0  0
 18 19  1  0  0  0
 18 34  1  0  0  0
 18 35  1  0  0  0
 19 20  1  0  0  0
 19 36  1  0  0  0
 19 37  1  0  0  0
 20 38  1  0  0  0
 20 39  1  0  0  0
 20 40  1  0  0  0
M  CHG  2   2  -1   3   1
M  END
> <chembl_id>
CHEMBL1972462

> <chembl_pref_name>
None

> <s_m_source_file>
sdf/inactives_sanitized.sdf

> <i_m_source_file_index>
74

> <i_lp_mmshare_version>
49012

> <i_m_ct_stereo_status>
1

> <i_f3d_flags>
0

> <s_epik_input>
Tz1DKFtPSF0pW0NIXShbQ0gyXTEpW0NIMl1OMVtDSDJdYzJbY0hdW2NIXWMoW2NIXVtjSF0yKUMjQ1tDSDJdW0NIMl1bQ0gyXVtDSDNd

> <s_epik_cmdline>
J2VwaWtfcHl0aG9uJywgJy1waHQnLCAnMC41JywgJy1waCcsICc3LjUnLCAnLW50JywgJy1tYScsICcyMDAnLCAnLWltYWUnLCAnPGluZmlsZS5tYWU+JywgJy1vbWFlJywgJzxvdXRmaWxlLm1hZT4n

> <r_epik_Ionization_Penalty>
  0.0319

> <r_epik_Ionization_Penalty_Charging>
  0.0319

> <r_epik_Ionization_Penalty_Neutral>
  0.0000

> <r_epik_State_Penalty>
  0.0264

> <r_epik_Charging_Adjusted_Penalty>
0.058245813507447

> <i_epik_Tot_Q>
0

> <i_epik_Tot_abs_Q>
2

> <s_lp_Force_Field>
OPLS3e

> <r_lp_Energy>
16.943973

> <b_lp_Chiralities_Consistent>
1

> <s_lp_Variant>
sdf/inactives_sanitized.sdf:74-1

$$$$
sdf/inactives_sanitized.sdf:75
                    3D
 Schrodinger Suite 2020-1.
 57 58  0  0  1  0            999 V2000
    0.0335    2.2676    0.3755 O   0  0  0  0  0  0
   -6.3526    1.7054   -0.1333 O   0  0  0  0  0  0
   -4.8778    3.8862    0.2209 O   0  0  0  0  0  0
   -3.9357   -2.7222    0.4380 O   0  0  0  0  0  0
   -0.1083    0.0094   -0.0221 N   0  0  0  0  0  0
   -2.2977   -3.4024   -0.9640 N   0  0  0  0  0  0
   -2.9570    0.1497   -0.0687 C   0  0  0  0  0  0
   -2.1800    1.3145    0.0909 C   0  0  0  0  0  0
   -2.2659   -1.1680   -0.1562 C   0  0  0  0  0  0
   -0.6533    1.2621    0.1674 C   0  0  0  0  0  0
   -0.9133   -1.0996   -0.1240 C   0  0  0  0  0  0
   -4.3501    0.2794   -0.1573 C   0  0  0  0  0  0
   -2.8073    2.5616    0.2014 C   0  0  0  0  0  0
   -4.9812    1.5301   -0.0586 C   0  0  0  0  0  0
   -4.2038    2.6803    0.1265 C   0  0  0  0  0  0
   -2.9011   -2.4810   -0.1856 C   0  0  0  0  0  0
    1.3760   -0.0976   -0.1030 C   0  0  0  0  0  0
    1.8661   -0.7780   -1.4082 C   0  0  0  0  0  0
    1.9939   -0.7764    1.1468 C   0  0  0  0  0  0
   -2.7455   -4.7821   -1.1368 C   0  0  0  0  0  0
   -7.1990    0.5736   -0.3057 C   0  0  0  0  0  0
   -4.1429    5.0912    0.4072 C   0  0  0  0  0  0
    1.3800   -0.0903   -2.6945 C   0  0  0  0  0  0
    1.6560   -0.0874    2.4790 C   0  0  0  0  0  0
   -1.7505   -5.6236   -1.9573 C   0  0  0  0  0  0
   -0.3446   -5.7316   -1.3326 C   0  0  0  0  0  0
    0.6059   -6.6161   -2.1504 C   0  0  0  0  0  0
   -1.4620   -3.1381   -1.4648 H   0  0  0  0  0  0
   -0.3012   -1.9911   -0.0985 H   0  0  0  0  0  0
   -4.9508   -0.6021   -0.3089 H   0  0  0  0  0  0
   -2.2020    3.4454    0.3375 H   0  0  0  0  0  0
    1.8262    0.8958   -0.1357 H   0  0  0  0  0  0
    2.9569   -0.7861   -1.4187 H   0  0  0  0  0  0
    1.5631   -1.8256   -1.4292 H   0  0  0  0  0  0
    1.6787   -1.8195    1.2005 H   0  0  0  0  0  0
    3.0796   -0.7987    1.0412 H   0  0  0  0  0  0
   -2.8464   -5.2272   -0.1448 H   0  0  0  0  0  0
   -3.7310   -4.7998   -1.6056 H   0  0  0  0  0  0
   -8.2373    0.9029   -0.3371 H   0  0  0  0  0  0
   -7.1009   -0.1289    0.5232 H   0  0  0  0  0  0
   -6.9895    0.0558   -1.2429 H   0  0  0  0  0  0
   -4.8364    5.9306    0.4554 H   0  0  0  0  0  0
   -3.4594    5.2765   -0.4228 H   0  0  0  0  0  0
   -3.5786    5.0754    1.3411 H   0  0  0  0  0  0
    1.7967   -0.5775   -3.5763 H   0  0  0  0  0  0
    1.6837    0.9568   -2.7203 H   0  0  0  0  0  0
    0.2938   -0.1254   -2.7840 H   0  0  0  0  0  0
    2.1692   -0.5737    3.3088 H   0  0  0  0  0  0
    0.5868   -0.1250    2.6896 H   0  0  0  0  0  0
    1.9592    0.9600    2.4699 H   0  0  0  0  0  0
   -2.1649   -6.6256   -2.0786 H   0  0  0  0  0  0
   -1.6762   -5.2118   -2.9651 H   0  0  0  0  0  0
    0.0963   -4.7386   -1.2339 H   0  0  0  0  0  0
   -0.4231   -6.1321   -0.3210 H   0  0  0  0  0  0
    1.5905   -6.6636   -1.6843 H   0  0  0  0  0  0
    0.7369   -6.2281   -3.1612 H   0  0  0  0  0  0
    0.2279   -7.6359   -2.2291 H   0  0  0  0  0  0
  1 10  2  0  0  0
  2 14  1  0  0  0
  2 21  1  0  0  0
  3 15  1  0  0  0
  3 22  1  0  0  0
  4 16  2  0  0  0
  5 10  1  0  0  0
  5 11  1  0  0  0
  5 17  1  0  0  0
  6 16  1  0  0  0
  6 20  1  0  0  0
  6 28  1  0  0  0
  7  8  2  0  0  0
  7  9  1  0  0  0
  7 12  1  0  0  0
  8 10  1  0  0  0
  8 13  1  0  0  0
  9 11  2  0  0  0
  9 16  1  0  0  0
 11 29  1  0  0  0
 12 14  2  0  0  0
 12 30  1  0  0  0
 13 15  2  0  0  0
 13 31  1  0  0  0
 14 15  1  0  0  0
 17 18  1  0  0  0
 17 19  1  0  0  0
 17 32  1  0  0  0
 18 23  1  0  0  0
 18 33  1  0  0  0
 18 34  1  0  0  0
 19 24  1  0  0  0
 19 35  1  0  0  0
 19 36  1  0  0  0
 20 25  1  0  0  0
 20 37  1  0  0  0
 20 38  1  0  0  0
 21 39  1  0  0  0
 21 40  1  0  0  0
 21 41  1  0  0  0
 22 42  1  0  0  0
 22 43  1  0  0  0
 22 44  1  0  0  0
 23 45  1  0  0  0
 23 46  1  0  0  0
 23 47  1  0  0  0
 24 48  1  0  0  0
 24 49  1  0  0  0
 24 50  1  0  0  0
 25 26  1  0  0  0
 25 51  1  0  0  0
 25 52  1  0  0  0
 26 27  1  0  0  0
 26 53  1  0  0  0
 26 54  1  0  0  0
 27 55  1  0  0  0
 27 56  1  0  0  0
 27 57  1  0  0  0
M  END
> <chembl_id>
CHEMBL1982700

> <chembl_pref_name>
None

> <s_m_source_file>
sdf/inactives_sanitized.sdf

> <i_m_source_file_index>
75

> <i_lp_mmshare_version>
49012

> <i_m_ct_stereo_status>
1

> <i_f3d_flags>
0

> <s_epik_input>
W0NIM11PYyhbY0hdMSljKE9bQ0gzXSlbY0hdYyhjMTIpYyg9TyluKFtDSF0oW0NIMl1bQ0gzXSlbQ0gyXVtDSDNdKVtjSF1jMkMoPU8pW05IXVtDSDJdW0NIMl1bQ0gyXVtDSDNd

> <s_epik_cmdline>
J2VwaWtfcHl0aG9uJywgJy1waHQnLCAnMC41JywgJy1waCcsICc3LjUnLCAnLW50JywgJy1tYScsICcyMDAnLCAnLWltYWUnLCAnPGluZmlsZS5tYWU+JywgJy1vbWFlJywgJzxvdXRmaWxlLm1hZT4n

> <r_lp_tautomer_probability>
1

> <r_epik_Ionization_Penalty>
  0.0000

> <r_epik_Ionization_Penalty_Charging>
  0.0000

> <r_epik_Ionization_Penalty_Neutral>
  0.0000

> <r_epik_State_Penalty>
 -0.0000

> <r_epik_Charging_Adjusted_Penalty>
1.2126952619275e-08

> <i_epik_Tot_Q>
0

> <i_epik_Tot_abs_Q>
0

> <s_lp_Force_Field>
OPLS3e

> <r_lp_Energy>
45.99485

> <b_lp_Chiralities_Consistent>
1

> <s_lp_Variant>
sdf/inactives_sanitized.sdf:75-1

$$$$
sdf/inactives_sanitized.sdf:76
                    3D
 Schrodinger Suite 2020-1.
 35 37  0  0  1  0            999 V2000
   -3.5938   -0.7989    1.0793 F   0  0  0  0  0  0
   -7.9755    2.5317    0.6534 F   0  0  0  0  0  0
    4.2637    3.2192    0.0253 F   0  0  0  0  0  0
    4.0300    2.6696   -2.0587 F   0  0  0  0  0  0
    5.7235    1.9463   -0.9305 F   0  0  0  0  0  0
   -0.2589    2.5795   -0.2798 O   0  0  0  0  0  0
   -5.5171    3.5422   -0.0491 N   0  0  0  0  0  0
   -2.0069    1.1667    0.1907 N   0  0  0  0  0  0
    2.2466    1.2386   -0.3490 N   0  0  0  0  0  0
    0.0416    0.3494    0.1350 N   0  0  0  0  0  0
   -4.4349    1.4105    0.4855 C   0  0  0  0  0  0
   -5.5929    2.2538    0.3845 C   0  0  0  0  0  0
   -3.1624    1.9774    0.1124 C   0  0  0  0  0  0
   -4.6267    0.0673    0.9522 C   0  0  0  0  0  0
   -6.8721    1.7504    0.7419 C   0  0  0  0  0  0
    3.5868    1.0248   -0.4480 C   0  0  0  0  0  0
   -3.1344    3.3069   -0.3385 C   0  0  0  0  0  0
    4.4225    2.2348   -0.8605 C   0  0  0  0  0  0
   -5.8977   -0.3871    1.2916 C   0  0  0  0  0  0
    1.4367    0.2027    0.0164 C   0  0  0  0  0  0
   -7.0056    0.4416    1.1886 C   0  0  0  0  0  0
   -0.7062    1.4638   -0.0108 C   0  0  0  0  0  0
   -4.3118    4.0375   -0.3989 C   0  0  0  0  0  0
    4.1614   -0.2253   -0.1885 C   0  0  0  0  0  0
    1.9517   -1.0698    0.2863 C   0  0  0  0  0  0
    3.3276   -1.2807    0.1823 C   0  0  0  0  0  0
   -2.2056    0.2063    0.4317 H   0  0  0  0  0  0
   -0.4512   -0.4974    0.3772 H   0  0  0  0  0  0
   -2.2301    3.8004   -0.6536 H   0  0  0  0  0  0
   -6.0266   -1.4012    1.6413 H   0  0  0  0  0  0
   -7.9809    0.0638    1.4583 H   0  0  0  0  0  0
   -4.3001    5.0612   -0.7436 H   0  0  0  0  0  0
    5.2269   -0.3835   -0.2704 H   0  0  0  0  0  0
    1.3036   -1.8861    0.5724 H   0  0  0  0  0  0
    3.7446   -2.2556    0.3874 H   0  0  0  0  0  0
  1 14  1  0  0  0
  2 15  1  0  0  0
  3 18  1  0  0  0
  4 18  1  0  0  0
  5 18  1  0  0  0
  6 22  2  0  0  0
  7 12  2  0  0  0
  7 23  1  0  0  0
  8 13  1  0  0  0
  8 22  1  0  0  0
  8 27  1  0  0  0
  9 16  2  0  0  0
  9 20  1  0  0  0
 10 20  1  0  0  0
 10 22  1  0  0  0
 10 28  1  0  0  0
 11 12  1  0  0  0
 11 13  2  0  0  0
 11 14  1  0  0  0
 12 15  1  0  0  0
 13 17  1  0  0  0
 14 19  2  0  0  0
 15 21  2  0  0  0
 16 18  1  0  0  0
 16 24  1  0  0  0
 17 23  2  0  0  0
 17 29  1  0  0  0
 19 21  1  0  0  0
 19 30  1  0  0  0
 20 25  2  0  0  0
 21 31  1  0  0  0
 23 32  1  0  0  0
 24 26  2  0  0  0
 24 33  1  0  0  0
 25 26  1  0  0  0
 25 34  1  0  0  0
 26 35  1  0  0  0
M  END
> <chembl_id>
CHEMBL2001987

> <chembl_pref_name>
None

> <s_m_source_file>
sdf/inactives_sanitized.sdf

> <i_m_source_file_index>
76

> <i_lp_mmshare_version>
49012

> <i_m_ct_stereo_status>
1

> <i_f3d_flags>
0

> <s_epik_input>
RmMxW2NIXVtjSF1jKEYpYyhjMTIpbltjSF1bY0hdYzJbTkhdQyg9TylbTkhdYyhuYzNDKEYpKEYpRilbY0hdW2NIXVtjSF0z

> <s_epik_cmdline>
J2VwaWtfcHl0aG9uJywgJy1waHQnLCAnMC41JywgJy1waCcsICc3LjUnLCAnLW50JywgJy1tYScsICcyMDAnLCAnLWltYWUnLCAnPGluZmlsZS5tYWU+JywgJy1vbWFlJywgJzxvdXRmaWxlLm1hZT4n

> <r_lp_tautomer_probability>
1

> <r_epik_Ionization_Penalty>
  0.0002

> <r_epik_Ionization_Penalty_Charging>
  0.0000

> <r_epik_Ionization_Penalty_Neutral>
  0.0002

> <r_epik_State_Penalty>
 -0.0000

> <r_epik_Charging_Adjusted_Penalty>
0

> <i_epik_Tot_Q>
0

> <i_epik_Tot_abs_Q>
0

> <s_lp_Force_Field>
OPLS3e

> <r_lp_Energy>
49.069487

> <b_lp_Chiralities_Consistent>
1

> <s_lp_Variant>
sdf/inactives_sanitized.sdf:76-1

$$$$
sdf/inactives_sanitized.sdf:77
                    3D
 Schrodinger Suite 2020-1.
 16 17  0  0  1  0            999 V2000
    4.3807    2.6537    0.0000 S   0  0  0  0  0  0
    4.1058   -2.2886    0.0000 O   0  0  0  0  0  0
    4.1662   -0.1057    0.0000 N   0  0  0  0  0  0
    2.0216   -1.1513   -0.0000 N   0  0  0  0  0  0
    0.0578    0.0089   -0.0000 N   0  0  0  0  0  0
    2.1576    1.2739   -0.0000 C   0  0  0  0  0  0
    3.5469    1.1371    0.0000 C   0  0  0  0  0  0
    1.4327   -0.0049   -0.0000 C   0  0  0  0  0  0
    3.4334   -1.2605   -0.0000 C   0  0  0  0  0  0
    1.7623    2.6193   -0.0000 C   0  0  0  0  0  0
    2.8518    3.4883   -0.0000 C   0  0  0  0  0  0
    5.1706   -0.2062    0.0000 H   0  0  0  0  0  0
   -0.4500    0.8810   -0.0000 H   0  0  0  0  0  0
   -0.4587   -0.8586   -0.0000 H   0  0  0  0  0  0
    0.7334    2.9480   -0.0000 H   0  0  0  0  0  0
    2.8267    4.5682   -0.0000 H   0  0  0  0  0  0
  1  7  1  0  0  0
  1 11  1  0  0  0
  2  9  2  0  0  0
  3  7  1  0  0  0
  3  9  1  0  0  0
  3 12  1  0  0  0
  4  8  2  0  0  0
  4  9  1  0  0  0
  5  8  1  0  0  0
  5 13  1  0  0  0
  5 14  1  0  0  0
  6  7  2  0  0  0
  6  8  1  0  0  0
  6 10  1  0  0  0
 10 11  2  0  0  0
 10 15  1  0  0  0
 11 16  1  0  0  0
M  END
> <chembl_id>
CHEMBL2007097

> <chembl_pref_name>
None

> <s_m_source_file>
sdf/inactives_sanitized.sdf

> <i_m_source_file_index>
77

> <i_lp_mmshare_version>
49012

> <i_m_ct_stereo_status>
1

> <i_f3d_flags>
0

> <s_epik_input>
W2NIXTFbY0hdc2MoYzEyKVtuSF1jKD1PKW5jMltOSDJd

> <s_epik_cmdline>
J2VwaWtfcHl0aG9uJywgJy1waHQnLCAnMC41JywgJy1waCcsICc3LjUnLCAnLW50JywgJy1tYScsICcyMDAnLCAnLWltYWUnLCAnPGluZmlsZS5tYWU+JywgJy1vbWFlJywgJzxvdXRmaWxlLm1hZT4n

> <r_lp_tautomer_probability>
1

> <r_epik_Ionization_Penalty>
  0.0009

> <r_epik_Ionization_Penalty_Charging>
  0.0000

> <r_epik_Ionization_Penalty_Neutral>
  0.0009

> <r_epik_State_Penalty>
 -0.0000

> <r_epik_Charging_Adjusted_Penalty>
2.02862457886524e-06

> <i_epik_Tot_Q>
0

> <i_epik_Tot_abs_Q>
0

> <s_lp_Force_Field>
OPLS3e

> <r_lp_Energy>
17.473211

> <b_lp_Chiralities_Consistent>
1

> <s_lp_Variant>
sdf/inactives_sanitized.sdf:77-1

$$$$
sdf/inactives_sanitized.sdf:78
                    3D
 Schrodinger Suite 2020-1.
 43 46  0  0  1  0            999 V2000
   -1.3248    8.9425   -0.7404 Cl  0  0  0  0  0  0
    0.9275   -1.2950    5.3289 S   0  0  0  0  0  0
   -2.6757   -0.4679    0.2335 S   0  0  0  0  0  0
   -1.2335    3.8617    0.1243 O   0  0  0  0  0  0
   -1.3657    1.8441    4.7906 N   0  0  0  0  0  0
    0.1600    1.9070    2.9029 N   0  0  0  0  0  0
    1.8358    0.2149    2.5923 N   0  0  0  0  0  0
   -0.6193    1.0531   -0.0762 N   0  0  0  0  0  0
   -2.7665    2.1782   -0.1219 N   0  0  0  0  0  0
   -3.4821    4.2689   -0.0315 N   0  0  0  0  0  0
    0.3458    0.1557    4.5178 C   0  0  0  0  0  0
   -0.7508    0.7359    5.2228 C   0  0  0  0  0  0
    0.7800    0.7752    3.3326 C   0  0  0  0  0  0
   -1.0956    0.0085    6.3938 C   0  0  0  0  0  0
   -1.9325    1.0746   -0.0172 C   0  0  0  0  0  0
   -0.1278   -0.1578    0.1255 C   0  0  0  0  0  0
   -0.2858   -1.0940    6.5727 C   0  0  0  0  0  0
   -0.8711    2.3762    3.6436 C   0  0  0  0  0  0
   -1.0823   -1.1588    0.2944 C   0  0  0  0  0  0
    1.3834   -0.3060    0.1804 C   0  0  0  0  0  0
    2.0784    0.6116    1.2078 C   0  0  0  0  0  0
   -2.3955    3.4706   -0.0063 C   0  0  0  0  0  0
   -3.5421    5.6745    0.0007 C   0  0  0  0  0  0
   -2.4775    6.5223   -0.3529 C   0  0  0  0  0  0
   -2.6371    7.9084   -0.3069 C   0  0  0  0  0  0
   -4.7653    6.2390    0.3772 C   0  0  0  0  0  0
   -3.8577    8.4589    0.0842 C   0  0  0  0  0  0
   -4.9213    7.6244    0.4238 C   0  0  0  0  0  0
    2.1773   -0.6895    2.8835 H   0  0  0  0  0  0
   -3.7538    1.9805   -0.1926 H   0  0  0  0  0  0
   -4.3807    3.8095   -0.0179 H   0  0  0  0  0  0
   -1.8977    0.2847    7.0618 H   0  0  0  0  0  0
   -0.3394   -1.8107    7.3792 H   0  0  0  0  0  0
   -1.3554    3.2696    3.2769 H   0  0  0  0  0  0
   -0.9313   -2.2134    0.4716 H   0  0  0  0  0  0
    1.7745   -1.3234    0.2172 H   0  0  0  0  0  0
    1.7425    0.0247   -0.7956 H   0  0  0  0  0  0
    1.8610    1.6613    1.0041 H   0  0  0  0  0  0
    3.1552    0.5706    1.0417 H   0  0  0  0  0  0
   -1.5278    6.1289   -0.6808 H   0  0  0  0  0  0
   -5.6017    5.6079    0.6426 H   0  0  0  0  0  0
   -3.9835    9.5310    0.1203 H   0  0  0  0  0  0
   -5.8675    8.0512    0.7219 H   0  0  0  0  0  0
  1 25  1  0  0  0
  2 11  1  0  0  0
  2 17  1  0  0  0
  3 15  1  0  0  0
  3 19  1  0  0  0
  4 22  2  0  0  0
  5 12  1  0  0  0
  5 18  2  0  0  0
  6 13  2  0  0  0
  6 18  1  0  0  0
  7 13  1  0  0  0
  7 21  1  0  0  0
  7 29  1  0  0  0
  8 15  2  0  0  0
  8 16  1  0  0  0
  9 15  1  0  0  0
  9 22  1  0  0  0
  9 30  1  0  0  0
 10 22  1  0  0  0
 10 23  1  0  0  0
 10 31  1  0  0  0
 11 12  2  0  0  0
 11 13  1  0  0  0
 12 14  1  0  0  0
 14 17  2  0  0  0
 14 32  1  0  0  0
 16 19  2  0  0  0
 16 20  1  0  0  0
 17 33  1  0  0  0
 18 34  1  0  0  0
 19 35  1  0  0  0
 20 21  1  0  0  0
 20 36  1  0  0  0
 20 37  1  0  0  0
 21 38  1  0  0  0
 21 39  1  0  0  0
 23 24  2  0  0  0
 23 26  1  0  0  0
 24 25  1  0  0  0
 24 40  1  0  0  0
 25 27  2  0  0  0
 26 28  2  0  0  0
 26 41  1  0  0  0
 27 28  1  0  0  0
 27 42  1  0  0  0
 28 43  1  0  0  0
M  END
> <chembl_id>
CHEMBL1986177

> <chembl_pref_name>
None

> <s_m_source_file>
sdf/inactives_sanitized.sdf

> <i_m_source_file_index>
78

> <i_lp_mmshare_version>
49012

> <i_m_ct_stereo_status>
1

> <i_f3d_flags>
0

> <s_epik_input>
W2NIXTFbY0hdW2NIXWMoQ2wpW2NIXWMxW05IXUMoPU8pW05IXWMyc1tjSF1jKG4yKVtDSDJdW0NIMl1bTkhdYzNuW2NIXW5jKGMzNClbY0hdW2NIXXM0

> <s_epik_cmdline>
J2VwaWtfcHl0aG9uJywgJy1waHQnLCAnMC41JywgJy1waCcsICc3LjUnLCAnLW50JywgJy1tYScsICcyMDAnLCAnLWltYWUnLCAnPGluZmlsZS5tYWU+JywgJy1vbWFlJywgJzxvdXRmaWxlLm1hZT4n

> <r_lp_tautomer_probability>
1

> <r_epik_Ionization_Penalty>
  0.0025

> <r_epik_Ionization_Penalty_Charging>
  0.0000

> <r_epik_Ionization_Penalty_Neutral>
  0.0025

> <r_epik_State_Penalty>
 -0.0000

> <r_epik_Charging_Adjusted_Penalty>
0

> <i_epik_Tot_Q>
0

> <i_epik_Tot_abs_Q>
0

> <s_lp_Force_Field>
OPLS3e

> <r_lp_Energy>
16.066436

> <b_lp_Chiralities_Consistent>
1

> <s_lp_Variant>
sdf/inactives_sanitized.sdf:78-1

$$$$
sdf/inactives_sanitized.sdf:79
                    3D
 Schrodinger Suite 2020-1.
 21 22  0  0  1  0            999 V2000
   -2.4473   -0.7346    0.0540 S   0  0  0  0  0  0
   -4.3597    1.3954   -0.4946 O   0  0  0  0  0  0
    2.0296   -1.1945    0.2479 O   0  0  0  0  0  0
    2.1905    0.9233   -0.3934 O   0  5  0  0  0  0
   -0.1439    2.4812   -0.0029 N   0  0  0  0  0  0
   -3.1932    3.0936    0.4178 N   0  0  0  0  0  0
   -0.7207    1.2274   -0.0015 C   0  0  0  0  0  0
   -2.1162    0.9776    0.0489 C   0  0  0  0  0  0
    0.0554    0.0292   -0.0052 C   0  0  0  0  0  0
   -3.3010    1.8306   -0.0397 C   0  0  0  0  0  0
   -0.7647   -1.0979    0.0323 C   0  0  0  0  0  0
    1.5320   -0.0845   -0.0503 C   0  0  0  0  0  0
   -0.8404    3.7499   -0.0918 C   0  0  0  0  0  0
   -2.0278    3.8401    0.8741 C   0  0  0  0  0  0
    0.8403    2.5073   -0.2335 H   0  0  0  0  0  0
   -4.0531    3.6198    0.3660 H   0  0  0  0  0  0
   -0.4521   -2.1323    0.0357 H   0  0  0  0  0  0
   -0.1557    4.5846    0.0603 H   0  0  0  0  0  0
   -1.1952    3.8701   -1.1164 H   0  0  0  0  0  0
   -2.3035    4.8853    1.0155 H   0  0  0  0  0  0
   -1.7261    3.4723    1.8569 H   0  0  0  0  0  0
  1  8  1  0  0  0
  1 11  1  0  0  0
  2 10  2  0  0  0
  3 12  2  0  0  0
  4 12  1  0  0  0
  5  7  1  0  0  0
  5 13  1  0  0  0
  5 15  1  0  0  0
  6 10  1  0  0  0
  6 14  1  0  0  0
  6 16  1  0  0  0
  7  8  2  0  0  0
  7  9  1  0  0  0
  8 10  1  0  0  0
  9 11  2  0  0  0
  9 12  1  0  0  0
 11 17  1  0  0  0
 13 14  1  0  0  0
 13 18  1  0  0  0
 13 19  1  0  0  0
 14 20  1  0  0  0
 14 21  1  0  0  0
M  CHG  1   4  -1
M  END
> <chembl_id>
CHEMBL1974875

> <chembl_pref_name>
None

> <s_m_source_file>
sdf/inactives_sanitized.sdf

> <i_m_source_file_index>
79

> <i_lp_mmshare_version>
49012

> <i_m_ct_stereo_status>
1

> <i_f3d_flags>
0

> <s_epik_input>
Tz1DKFtPSF0pYzFbY0hdc2MoYzEyKUMoPU8pW05IXVtDSDJdW0NIMl1bTkhdMg==

> <s_epik_cmdline>
J2VwaWtfcHl0aG9uJywgJy1waHQnLCAnMC41JywgJy1waCcsICc3LjUnLCAnLW50JywgJy1tYScsICcyMDAnLCAnLWltYWUnLCAnPGluZmlsZS5tYWU+JywgJy1vbWFlJywgJzxvdXRmaWxlLm1hZT4n

> <r_lp_tautomer_probability>
1

> <r_epik_Ionization_Penalty>
  0.0014

> <r_epik_Ionization_Penalty_Charging>
  0.0013

> <r_epik_Ionization_Penalty_Neutral>
  0.0001

> <r_epik_State_Penalty>
 -0.0000

> <r_epik_Charging_Adjusted_Penalty>
0.00134692515495949

> <i_epik_Tot_Q>
-1

> <i_epik_Tot_abs_Q>
1

> <s_lp_Force_Field>
OPLS3e

> <r_lp_Energy>
13.992149

> <b_lp_Chiralities_Consistent>
1

> <s_lp_Variant>
sdf/inactives_sanitized.sdf:79-1

$$$$
sdf/inactives_sanitized.sdf:80
                    3D
 Schrodinger Suite 2020-1.
 35 37  0  0  1  0            999 V2000
   -4.9672    1.0779    0.0000 O   0  0  0  0  0  0
   -2.7774   -2.4084   -0.0000 N   0  0  0  0  0  0
   -4.6705   -3.7607   -0.0000 N   0  0  0  0  0  0
   -4.9898   -1.3360   -0.0000 C   0  0  0  0  0  0
   -2.8313    0.0298    0.0000 C   0  0  0  0  0  0
   -4.3302    0.0230    0.0000 C   0  0  0  0  0  0
   -2.1035   -1.1755   -0.0000 C   0  0  0  0  0  0
   -4.1801   -2.4979   -0.0000 C   0  0  0  0  0  0
   -6.3947   -1.5425   -0.0000 C   0  0  0  0  0  0
   -0.7076   -1.1658   -0.0000 C   0  0  0  0  0  0
   -2.1177    1.2377    0.0000 C   0  0  0  0  0  0
   -0.0065    0.0435   -0.0000 C   0  0  0  0  0  0
   -0.7235    1.2446    0.0000 C   0  0  0  0  0  0
   -6.8984   -2.8490   -0.0000 C   0  0  0  0  0  0
   -6.0126   -3.9210   -0.0000 C   0  0  0  0  0  0
    1.5231    0.0463   -0.0000 C   0  0  0  0  0  0
   -7.4133   -0.4064    0.0000 C   0  0  0  0  0  0
    2.0983    0.6866    1.2775 C   0  0  0  0  0  0
    2.0983    0.6866   -1.2775 C   0  0  0  0  0  0
   -2.2382   -3.2620   -0.0000 H   0  0  0  0  0  0
   -0.1660   -2.1011   -0.0000 H   0  0  0  0  0  0
   -2.6366    2.1859    0.0000 H   0  0  0  0  0  0
   -0.2011    2.1904    0.0000 H   0  0  0  0  0  0
   -7.9626   -3.0367   -0.0000 H   0  0  0  0  0  0
   -6.3771   -4.9378   -0.0000 H   0  0  0  0  0  0
    1.8570   -0.9933   -0.0000 H   0  0  0  0  0  0
   -8.4423   -0.7685    0.0000 H   0  0  0  0  0  0
   -7.2839    0.2214   -0.8821 H   0  0  0  0  0  0
   -7.2839    0.2214    0.8821 H   0  0  0  0  0  0
    1.7152    0.1941    2.1722 H   0  0  0  0  0  0
    1.8469    1.7454    1.3484 H   0  0  0  0  0  0
    3.1856    0.6057    1.3026 H   0  0  0  0  0  0
    1.7152    0.1941   -2.1722 H   0  0  0  0  0  0
    3.1856    0.6057   -1.3026 H   0  0  0  0  0  0
    1.8469    1.7454   -1.3484 H   0  0  0  0  0  0
  1  6  2  0  0  0
  2  7  1  0  0  0
  2  8  1  0  0  0
  2 20  1  0  0  0
  3  8  2  0  0  0
  3 15  1  0  0  0
  4  6  1  0  0  0
  4  8  1  0  0  0
  4  9  2  0  0  0
  5  6  1  0  0  0
  5  7  2  0  0  0
  5 11  1  0  0  0
  7 10  1  0  0  0
  9 14  1  0  0  0
  9 17  1  0  0  0
 10 12  2  0  0  0
 10 21  1  0  0  0
 11 13  2  0  0  0
 11 22  1  0  0  0
 12 13  1  0  0  0
 12 16  1  0  0  0
 13 23  1  0  0  0
 14 15  2  0  0  0
 14 24  1  0  0  0
 15 25  1  0  0  0
 16 18  1  0  0  0
 16 19  1  0  0  0
 16 26  1  0  0  0
 17 27  1  0  0  0
 17 28  1  0  0  0
 17 29  1  0  0  0
 18 30  1  0  0  0
 18 31  1  0  0  0
 18 32  1  0  0  0
 19 33  1  0  0  0
 19 34  1  0  0  0
 19 35  1  0  0  0
M  END
> <chembl_id>
CHEMBL1989471

> <chembl_pref_name>
None

> <s_m_source_file>
sdf/inactives_sanitized.sdf

> <i_m_source_file_index>
80

> <i_lp_mmshare_version>
49012

> <i_m_ct_stereo_status>
1

> <i_f3d_flags>
0

> <s_epik_input>
W0NIM11bQ0hdKFtDSDNdKWMoW2NIXTEpW2NIXVtjSF1jKGMyPU8pYzFbbkhdYyhjMjMpbltjSF1bY0hdYzNbQ0gzXQ==

> <s_epik_cmdline>
J2VwaWtfcHl0aG9uJywgJy1waHQnLCAnMC41JywgJy1waCcsICc3LjUnLCAnLW50JywgJy1tYScsICcyMDAnLCAnLWltYWUnLCAnPGluZmlsZS5tYWU+JywgJy1vbWFlJywgJzxvdXRmaWxlLm1hZT4n

> <r_lp_tautomer_probability>
1

> <r_epik_Ionization_Penalty>
  0.0024

> <r_epik_Ionization_Penalty_Charging>
  0.0024

> <r_epik_Ionization_Penalty_Neutral>
  0.0000

> <r_epik_State_Penalty>
 -0.0000

> <r_epik_Charging_Adjusted_Penalty>
0.00240685439651936

> <i_epik_Tot_Q>
0

> <i_epik_Tot_abs_Q>
0

> <s_lp_Force_Field>
OPLS3e

> <r_lp_Energy>
16.732372

> <b_lp_Chiralities_Consistent>
1

> <s_lp_Variant>
sdf/inactives_sanitized.sdf:80-1

$$$$
sdf/inactives_sanitized.sdf:81
                    3D
 Schrodinger Suite 2020-1.
 43 46  0  0  1  0            999 V2000
   -0.7318    1.1405    0.0214 C   0  0  0  0  0  0
    0.0417   -0.0547    0.0137 O   0  0  0  0  0  0
    1.4238    0.0246   -0.0099 C   0  0  0  0  0  0
    2.1270   -1.1820   -0.0278 C   0  0  0  0  0  0
    1.3709   -2.3424   -0.0483 O   0  0  0  0  0  0
    2.0191   -3.6101   -0.0437 C   0  0  0  0  0  0
    3.5302   -1.1725   -0.0377 C   0  0  0  0  0  0
    4.2832    0.0375    0.0210 C   0  0  0  0  0  0
    5.7221    0.1030    0.0751 C   0  0  0  0  0  0
    6.6174   -0.9739    0.4104 C   0  0  0  0  0  0
    8.0225   -0.8197    0.1621 C   0  0  0  0  0  0
    8.5358    0.3614   -0.2746 N   0  0  0  0  0  0
    8.9264   -1.9066    0.4086 C   0  0  0  0  0  0
   10.4126   -1.7230    0.0723 C   0  0  0  0  0  0
    8.4394   -3.0954    0.9704 C   0  0  0  0  0  0
    9.2715   -4.1859    1.2374 N   0  0  0  0  0  0
    7.0994   -3.2058    1.3141 C   0  0  0  0  0  0
    6.2073   -2.1728    1.0637 C   0  0  0  0  0  0
    6.3210    1.3665   -0.2326 C   0  0  0  0  0  0
    7.7246    1.4241   -0.4091 C   0  0  0  0  0  0
    8.3799    2.6079   -0.7538 N   0  0  0  0  0  0
    5.4718    2.4901   -0.3426 C   0  0  0  0  0  0
    4.1335    2.4659   -0.2120 N   0  0  0  0  0  0
    3.5397    1.2563   -0.0685 C   0  0  0  0  0  0
    2.1270    1.2343   -0.0483 C   0  0  0  0  0  0
   -1.7904    0.8835    0.0544 H   0  0  0  0  0  0
   -0.5642    1.7307   -0.8808 H   0  0  0  0  0  0
   -0.5146    1.7533    0.8975 H   0  0  0  0  0  0
    1.2665   -4.3979   -0.0183 H   0  0  0  0  0  0
    2.6549   -3.7342    0.8345 H   0  0  0  0  0  0
    2.6172   -3.7553   -0.9443 H   0  0  0  0  0  0
    4.0440   -2.1075   -0.1610 H   0  0  0  0  0  0
   11.0165   -2.6128    0.2447 H   0  0  0  0  0  0
   10.8364   -0.9176    0.6732 H   0  0  0  0  0  0
   10.5296   -1.4533   -0.9780 H   0  0  0  0  0  0
    8.8813   -5.0198    1.6521 H   0  0  0  0  0  0
   10.2522   -4.1303    1.0037 H   0  0  0  0  0  0
    6.7353   -4.1011    1.7985 H   0  0  0  0  0  0
    5.2076   -2.2954    1.4424 H   0  0  0  0  0  0
    7.8483    3.4566   -0.8798 H   0  0  0  0  0  0
    9.3826    2.5963   -0.8734 H   0  0  0  0  0  0
    5.8917    3.4663   -0.5355 H   0  0  0  0  0  0
    1.6049    2.1793   -0.0869 H   0  0  0  0  0  0
  1  2  1  0  0  0
  1 26  1  0  0  0
  1 27  1  0  0  0
  1 28  1  0  0  0
  2  3  1  0  0  0
  3 25  2  0  0  0
  3  4  1  0  0  0
  4  7  2  0  0  0
  4  5  1  0  0  0
  5  6  1  0  0  0
  6 29  1  0  0  0
  6 30  1  0  0  0
  6 31  1  0  0  0
  7  8  1  0  0  0
  7 32  1  0  0  0
  8  9  2  0  0  0
  8 24  1  0  0  0
  9 19  1  0  0  0
  9 10  1  0  0  0
 10 11  2  0  0  0
 10 18  1  0  0  0
 11 12  1  0  0  0
 11 13  1  0  0  0
 12 20  2  0  0  0
 13 14  1  0  0  0
 13 15  2  0  0  0
 14 33  1  0  0  0
 14 34  1  0  0  0
 14 35  1  0  0  0
 15 16  1  0  0  0
 15 17  1  0  0  0
 16 36  1  0  0  0
 16 37  1  0  0  0
 17 18  2  0  0  0
 17 38  1  0  0  0
 18 39  1  0  0  0
 19 20  1  0  0  0
 19 22  2  0  0  0
 20 21  1  0  0  0
 21 40  1  0  0  0
 21 41  1  0  0  0
 22 23  1  0  0  0
 22 42  1  0  0  0
 23 24  2  0  0  0
 24 25  1  0  0  0
 25 43  1  0  0  0
M  END
> <chembl_id>
CHEMBL235157

> <chembl_pref_name>
None

> <s_m_source_file>
sdf/inactives_sanitized.sdf

> <i_m_source_file_index>
81

> <i_lp_mmshare_version>
49012

> <i_m_ct_stereo_status>
1

> <i_f3d_flags>
0

> <s_epik_input>
W0NIM11PYyhbY0hdMSljKE9bQ0gzXSlbY0hdYzJuW2NIXWMzYyhbTkgyXSluYyhjNGMzYzEyKWMoW0NIM10pYyhbTkgyXSlbY0hdW2NIXTQ=

> <s_epik_cmdline>
J2VwaWtfcHl0aG9uJywgJy1waHQnLCAnMC41JywgJy1waCcsICc3LjUnLCAnLW50JywgJy1tYScsICcyMDAnLCAnLWltYWUnLCAnPGluZmlsZS5tYWU+JywgJy1vbWFlJywgJzxvdXRmaWxlLm1hZT4n

> <r_lp_tautomer_probability>
1

> <r_epik_Ionization_Penalty>
  0.0120

> <r_epik_Ionization_Penalty_Charging>
  0.0000

> <r_epik_Ionization_Penalty_Neutral>
  0.0120

> <r_epik_State_Penalty>
 -0.0000

> <r_epik_Charging_Adjusted_Penalty>
0

> <i_epik_Tot_Q>
0

> <i_epik_Tot_abs_Q>
0

> <s_lp_Force_Field>
OPLS3e

> <r_lp_Energy>
59.913507

> <b_lp_Chiralities_Consistent>
1

> <s_lp_Variant>
sdf/inactives_sanitized.sdf:81-1

$$$$
sdf/inactives_sanitized.sdf:82
                    3D
 Schrodinger Suite 2020-1.
 38 41  0  0  1  0            999 V2000
    6.8660    5.2196    3.6619 Cl  0  0  0  0  0  0
   -4.3984    3.3456    0.0301 O   0  0  0  0  0  0
   -0.6319   -0.9993    0.4198 N   0  0  0  0  0  0
   -1.9297   -0.6746    0.4756 N   0  0  0  0  0  0
   -3.3230    1.3603    0.2072 N   0  0  0  0  0  0
   -0.8882    1.2020   -0.0094 C   0  0  0  0  0  0
    0.0145    0.1250    0.1498 C   0  0  0  0  0  0
   -2.1353    0.6507    0.2364 C   0  0  0  0  0  0
    1.5018    0.1219    0.0445 C   0  0  0  0  0  0
   -0.8699    2.6315   -0.3723 C   0  0  0  0  0  0
   -3.3624    2.6916   -0.0648 C   0  0  0  0  0  0
   -2.0698    3.2747   -0.4219 C   0  0  0  0  0  0
    2.2597    1.0680    0.7416 C   0  0  0  0  0  0
    3.6609    1.0926    0.6621 C   0  0  0  0  0  0
    2.1581   -0.8354   -0.7343 C   0  0  0  0  0  0
    4.4577    2.1161    1.4077 C   0  0  0  0  0  0
    4.2897    0.1259   -0.1373 C   0  0  0  0  0  0
    0.4136    3.3276   -0.7888 C   0  0  0  0  0  0
    3.5475   -0.8313   -0.8271 C   0  0  0  0  0  0
    5.6623    2.6089    0.8844 C   0  0  0  0  0  0
    4.0171    2.6072    2.6459 C   0  0  0  0  0  0
    5.9486    4.0367    2.8027 C   0  0  0  0  0  0
    6.4045    3.5629    1.5758 C   0  0  0  0  0  0
    4.7562    3.5609    3.3406 C   0  0  0  0  0  0
   -2.6515   -1.3523    0.6745 H   0  0  0  0  0  0
   -2.0862    4.3109   -0.7281 H   0  0  0  0  0  0
    1.7439    1.7931    1.3535 H   0  0  0  0  0  0
    1.5926   -1.5811   -1.2747 H   0  0  0  0  0  0
    5.3661    0.0979   -0.2199 H   0  0  0  0  0  0
    0.2139    4.2771   -1.2871 H   0  0  0  0  0  0
    0.9817    2.7048   -1.4804 H   0  0  0  0  0  0
    1.0330    3.5390    0.0817 H   0  0  0  0  0  0
    4.0503   -1.5713   -1.4322 H   0  0  0  0  0  0
    6.0296    2.2639   -0.0710 H   0  0  0  0  0  0
    3.1005    2.2455    3.0880 H   0  0  0  0  0  0
    7.3288    3.9336    1.1573 H   0  0  0  0  0  0
    4.4035    3.9264    4.2940 H   0  0  0  0  0  0
   -4.1906    0.9500    0.5206 H   0  0  0  0  0  0
  1 22  1  0  0  0
  2 11  2  0  0  0
  3  4  1  0  0  0
  3  7  2  0  0  0
  4  8  1  0  0  0
  4 25  1  0  0  0
  5  8  1  0  0  0
  5 11  1  0  0  0
  5 38  1  0  0  0
  6  7  1  0  0  0
  6  8  2  0  0  0
  6 10  1  0  0  0
  7  9  1  0  0  0
  9 13  2  0  0  0
  9 15  1  0  0  0
 10 12  2  0  0  0
 10 18  1  0  0  0
 11 12  1  0  0  0
 12 26  1  0  0  0
 13 14  1  0  0  0
 13 27  1  0  0  0
 14 16  1  0  0  0
 14 17  2  0  0  0
 15 19  2  0  0  0
 15 28  1  0  0  0
 16 20  2  0  0  0
 16 21  1  0  0  0
 17 19  1  0  0  0
 17 29  1  0  0  0
 18 30  1  0  0  0
 18 31  1  0  0  0
 18 32  1  0  0  0
 19 33  1  0  0  0
 20 23  1  0  0  0
 20 34  1  0  0  0
 21 24  2  0  0  0
 21 35  1  0  0  0
 22 23  2  0  0  0
 22 24  1  0  0  0
 23 36  1  0  0  0
 24 37  1  0  0  0
M  END
> <chembl_id>
CHEMBL1990590

> <chembl_pref_name>
None

> <s_m_source_file>
sdf/inactives_sanitized.sdf

> <i_m_source_file_index>
82

> <i_lp_mmshare_version>
49012

> <i_m_ct_stereo_status>
1

> <i_f3d_flags>
0

> <s_epik_input>
W2NIXTFbY0hdYyhDbClbY0hdW2NIXWMxLWMoW2NIXVtjSF1bY0hdMilbY0hdYzItYzNuW25IXWMoYzM0KW5jKFtPSF0pW2NIXWM0W0NIM10=

> <s_epik_cmdline>
J2VwaWtfcHl0aG9uJywgJy1waHQnLCAnMC41JywgJy1waCcsICc3LjUnLCAnLW50JywgJy1tYScsICcyMDAnLCAnLWltYWUnLCAnPGluZmlsZS5tYWU+JywgJy1vbWFlJywgJzxvdXRmaWxlLm1hZT4n

> <r_lp_tautomer_probability>
1

> <r_epik_Ionization_Penalty>
  0.0007

> <r_epik_Ionization_Penalty_Charging>
  0.0000

> <r_epik_Ionization_Penalty_Neutral>
  0.0007

> <r_epik_State_Penalty>
 -0.0000

> <r_epik_Charging_Adjusted_Penalty>
3.24987863286971e-10

> <i_epik_Tot_Q>
0

> <i_epik_Tot_abs_Q>
0

> <s_lp_Force_Field>
OPLS3e

> <r_lp_Energy>
35.311678

> <b_lp_Chiralities_Consistent>
1

> <s_lp_Variant>
sdf/inactives_sanitized.sdf:82-1

$$$$
sdf/inactives_sanitized.sdf:83
                    3D
 Schrodinger Suite 2020-1.
 63 66  0  0  1  0            999 V2000
   -6.6152    3.8043   -0.4591 O   0  0  0  0  0  0
  -13.3050    0.8684    5.3860 O   0  0  0  0  0  0
   -0.2194    1.4435   -1.2746 O   0  0  0  0  0  0
  -13.6092   -1.8468    5.1588 O   0  0  0  0  0  0
   -5.8661    0.0207    1.5240 N   0  0  0  0  0  0
   -5.1481    2.1458   -0.4053 N   0  0  0  0  0  0
    0.4804   -0.0527    0.2731 N   0  0  0  0  0  0
    4.0878   -1.4288   -3.0017 N   0  3  0  0  0  0
   -7.0973    0.6770    1.4824 C   0  0  0  0  0  0
   -7.3247    1.9003    0.8097 C   0  0  0  0  0  0
   -4.5725    0.2084    1.0398 C   0  0  0  0  0  0
   -4.2413    1.2195    0.1165 C   0  0  0  0  0  0
   -6.3279    2.6805   -0.0421 C   0  0  0  0  0  0
   -9.4300    0.6728    2.2650 C   0  0  0  0  0  0
   -8.1606    0.0952    2.1859 C   0  0  0  0  0  0
  -10.5297    0.0178    3.0293 C   0  0  0  0  0  0
   -8.6035    2.4864    0.8977 C   0  0  0  0  0  0
   -2.9084    1.3463   -0.2990 C   0  0  0  0  0  0
   -1.8942    0.4897    0.1461 C   0  0  0  0  0  0
   -9.6338    1.8848    1.6100 C   0  0  0  0  0  0
   -3.5607   -0.6533    1.4754 C   0  0  0  0  0  0
   -2.2456   -0.5236    1.0438 C   0  0  0  0  0  0
  -11.3872    0.7712    3.8433 C   0  0  0  0  0  0
  -12.4312    0.1704    4.5698 C   0  0  0  0  0  0
  -10.7319   -1.3651    2.9511 C   0  0  0  0  0  0
   -0.4734    0.6669   -0.3508 C   0  0  0  0  0  0
  -12.6052   -1.2162    4.4688 C   0  0  0  0  0  0
  -11.7597   -1.9780    3.6637 C   0  0  0  0  0  0
    1.9051   -0.0275   -0.0548 C   0  0  0  0  0  0
  -13.1642    2.2788    5.5184 C   0  0  0  0  0  0
    2.2609   -0.8083   -1.3344 C   0  0  0  0  0  0
    3.7727   -0.8004   -1.6240 C   0  0  0  0  0  0
    5.5585   -1.1881   -3.3972 C   0  0  0  0  0  0
    3.7398   -2.9295   -3.0908 C   0  0  0  0  0  0
  -13.6289   -2.7946    5.0086 H   0  0  0  0  0  0
   -5.9173   -0.8025    2.1063 H   0  0  0  0  0  0
   -4.6907    2.7617   -1.0616 H   0  0  0  0  0  0
    0.2067   -0.6510    1.0388 H   0  0  0  0  0  0
   -7.9865   -0.8364    2.7063 H   0  0  0  0  0  0
   -8.8396    3.4193    0.4050 H   0  0  0  0  0  0
   -2.6634    2.1374   -0.9953 H   0  0  0  0  0  0
  -10.6004    2.3665    1.6397 H   0  0  0  0  0  0
   -3.7963   -1.4440    2.1734 H   0  0  0  0  0  0
   -1.5134   -1.2232    1.4198 H   0  0  0  0  0  0
  -11.2252    1.8364    3.9087 H   0  0  0  0  0  0
  -10.0935   -1.9747    2.3279 H   0  0  0  0  0  0
  -11.8974   -3.0468    3.5864 H   0  0  0  0  0  0
    2.2636    1.0015   -0.1266 H   0  0  0  0  0  0
    2.4565   -0.4461    0.7881 H   0  0  0  0  0  0
  -13.9362    2.6560    6.1892 H   0  0  0  0  0  0
  -13.2849    2.7856    4.5596 H   0  0  0  0  0  0
  -12.1966    2.5449    5.9467 H   0  0  0  0  0  0
    1.9087   -1.8340   -1.2228 H   0  0  0  0  0  0
    1.7290   -0.3846   -2.1876 H   0  0  0  0  0  0
    4.3548   -1.3528   -0.8843 H   0  0  0  0  0  0
    4.1441    0.2237   -1.6875 H   0  0  0  0  0  0
    6.1892   -1.6943   -2.6644 H   0  0  0  0  0  0
    5.7248   -0.1100   -3.3954 H   0  0  0  0  0  0
    5.6983   -1.5969   -4.3988 H   0  0  0  0  0  0
    4.2918   -3.4478   -2.3053 H   0  0  0  0  0  0
    4.0358   -3.2752   -4.0821 H   0  0  0  0  0  0
    2.6625   -3.0317   -2.9647 H   0  0  0  0  0  0
    3.5196   -0.9465   -3.6847 H   0  0  0  0  0  0
  1 13  2  0  0  0
  2 24  1  0  0  0
  2 30  1  0  0  0
  3 26  2  0  0  0
  4 27  1  0  0  0
  4 35  1  0  0  0
  5  9  1  0  0  0
  5 11  1  0  0  0
  5 36  1  0  0  0
  6 12  1  0  0  0
  6 13  1  0  0  0
  6 37  1  0  0  0
  7 26  1  0  0  0
  7 29  1  0  0  0
  7 38  1  0  0  0
  8 32  1  0  0  0
  8 33  1  0  0  0
  8 34  1  0  0  0
  8 63  1  0  0  0
  9 10  2  0  0  0
  9 15  1  0  0  0
 10 13  1  0  0  0
 10 17  1  0  0  0
 11 12  2  0  0  0
 11 21  1  0  0  0
 12 18  1  0  0  0
 14 15  2  0  0  0
 14 16  1  0  0  0
 14 20  1  0  0  0
 15 39  1  0  0  0
 16 23  2  0  0  0
 16 25  1  0  0  0
 17 20  2  0  0  0
 17 40  1  0  0  0
 18 19  2  0  0  0
 18 41  1  0  0  0
 19 22  1  0  0  0
 19 26  1  0  0  0
 20 42  1  0  0  0
 21 22  2  0  0  0
 21 43  1  0  0  0
 22 44  1  0  0  0
 23 24  1  0  0  0
 23 45  1  0  0  0
 24 27  2  0  0  0
 25 28  2  0  0  0
 25 46  1  0  0  0
 27 28  1  0  0  0
 28 47  1  0  0  0
 29 31  1  0  0  0
 29 48  1  0  0  0
 29 49  1  0  0  0
 30 50  1  0  0  0
 30 51  1  0  0  0
 30 52  1  0  0  0
 31 32  1  0  0  0
 31 53  1  0  0  0
 31 54  1  0  0  0
 32 55  1  0  0  0
 32 56  1  0  0  0
 33 57  1  0  0  0
 33 58  1  0  0  0
 33 59  1  0  0  0
 34 60  1  0  0  0
 34 61  1  0  0  0
 34 62  1  0  0  0
M  CHG  1   8   1
M  END
> <chembl_id>
CHEMBL1996702

> <chembl_pref_name>
None

> <s_m_source_file>
sdf/inactives_sanitized.sdf

> <i_m_source_file_index>
83

> <i_lp_mmshare_version>
49012

> <i_m_ct_stereo_status>
1

> <i_f3d_flags>
0

> <s_epik_input>
W2NIXTFbY0hdYyhbT0hdKWMoT1tDSDNdKVtjSF1jMS1jKFtjSF0yKVtjSF1bY0hdYyhjMjMpQyg9TylbTkhdYzRjKFtOSF0zKVtjSF1bY0hdYyhbY0hdNClDKD1PKVtOSF1bQ0gyXVtDSDJdW0NIMl1OKFtDSDNdKVtDSDNd

> <s_epik_cmdline>
J2VwaWtfcHl0aG9uJywgJy1waHQnLCAnMC41JywgJy1waCcsICc3LjUnLCAnLW50JywgJy1tYScsICcyMDAnLCAnLWltYWUnLCAnPGluZmlsZS5tYWU+JywgJy1vbWFlJywgJzxvdXRmaWxlLm1hZT4n

> <r_lp_tautomer_probability>
1

> <r_epik_Ionization_Penalty>
  0.0057

> <r_epik_Ionization_Penalty_Charging>
  0.0026

> <r_epik_Ionization_Penalty_Neutral>
  0.0032

> <r_epik_State_Penalty>
 -0.0000

> <r_epik_Charging_Adjusted_Penalty>
0.00256370694200261

> <i_epik_Tot_Q>
1

> <i_epik_Tot_abs_Q>
1

> <s_lp_Force_Field>
OPLS3e

> <r_lp_Energy>
78.064666

> <b_lp_Chiralities_Consistent>
1

> <s_lp_Variant>
sdf/inactives_sanitized.sdf:83-1

$$$$
sdf/inactives_sanitized.sdf:84
                    3D
 Schrodinger Suite 2020-1.
 40 42  0  0  1  0            999 V2000
   -5.1647    0.4086   -0.4206 Cl  0  0  0  0  0  0
   -0.3375    0.7175    0.4343 O   0  0  0  0  0  0
   -5.8539   -6.3688    0.6817 N   0  0  0  0  0  0
   -4.6980   -7.9549    2.0918 N   0  0  0  0  0  0
   -2.7946   -0.6807    0.0736 N   0  0  0  0  0  0
   -0.5757   -1.5591    0.4929 N   0  0  0  0  0  0
   -4.4281   -4.6012    0.7714 C   0  0  0  0  0  0
   -3.9019   -5.6747    1.5871 C   0  0  0  0  0  0
   -3.8426   -3.2491    0.5099 C   0  0  0  0  0  0
   -4.8181   -6.7658    1.4926 C   0  0  0  0  0  0
   -5.6288   -5.0824    0.2635 C   0  0  0  0  0  0
   -2.4667   -3.0074    0.6160 C   0  0  0  0  0  0
   -4.6817   -2.1739    0.1888 C   0  0  0  0  0  0
   -1.9707   -1.7184    0.3944 C   0  0  0  0  0  0
   -2.7732   -5.8728    2.4079 C   0  0  0  0  0  0
   -4.1270   -0.9112   -0.0233 C   0  0  0  0  0  0
   -2.6228   -7.1052    3.0467 C   0  0  0  0  0  0
   -3.5872   -8.0957    2.8611 C   0  0  0  0  0  0
    0.1439   -0.4149    0.5097 C   0  0  0  0  0  0
    1.6670   -0.5952    0.6188 C   0  0  0  0  0  0
    2.3799    0.5364    1.3922 C   0  0  0  0  0  0
    3.9009    0.3221    1.4874 C   0  0  0  0  0  0
    4.6163    1.4421    2.2553 C   0  0  0  0  0  0
   -6.6691   -6.8998    0.4113 H   0  0  0  0  0  0
   -0.0606   -2.4183    0.6149 H   0  0  0  0  0  0
   -6.3496   -4.6107   -0.3885 H   0  0  0  0  0  0
   -1.7847   -3.8124    0.8423 H   0  0  0  0  0  0
   -5.7507   -2.3090    0.1108 H   0  0  0  0  0  0
   -2.0390   -5.0971    2.5594 H   0  0  0  0  0  0
   -1.7688   -7.2892    3.6823 H   0  0  0  0  0  0
   -3.4777   -9.0512    3.3528 H   0  0  0  0  0  0
    1.8901   -1.5538    1.0916 H   0  0  0  0  0  0
    2.0619   -0.6472   -0.3967 H   0  0  0  0  0  0
    2.1894    1.4962    0.9080 H   0  0  0  0  0  0
    1.9665    0.6079    2.4001 H   0  0  0  0  0  0
    4.1075   -0.6322    1.9739 H   0  0  0  0  0  0
    4.3240    0.2517    0.4842 H   0  0  0  0  0  0
    5.6900    1.2574    2.3023 H   0  0  0  0  0  0
    4.2486    1.5182    3.2792 H   0  0  0  0  0  0
    4.4688    2.4092    1.7736 H   0  0  0  0  0  0
  1 16  1  0  0  0
  2 19  2  0  0  0
  3 10  1  0  0  0
  3 11  1  0  0  0
  3 24  1  0  0  0
  4 10  2  0  0  0
  4 18  1  0  0  0
  5 14  2  0  0  0
  5 16  1  0  0  0
  6 14  1  0  0  0
  6 19  1  0  0  0
  6 25  1  0  0  0
  7  8  1  0  0  0
  7  9  1  0  0  0
  7 11  2  0  0  0
  8 10  1  0  0  0
  8 15  2  0  0  0
  9 12  2  0  0  0
  9 13  1  0  0  0
 11 26  1  0  0  0
 12 14  1  0  0  0
 12 27  1  0  0  0
 13 16  2  0  0  0
 13 28  1  0  0  0
 15 17  1  0  0  0
 15 29  1  0  0  0
 17 18  2  0  0  0
 17 30  1  0  0  0
 18 31  1  0  0  0
 19 20  1  0  0  0
 20 21  1  0  0  0
 20 32  1  0  0  0
 20 33  1  0  0  0
 21 22  1  0  0  0
 21 34  1  0  0  0
 21 35  1  0  0  0
 22 23  1  0  0  0
 22 36  1  0  0  0
 22 37  1  0  0  0
 23 38  1  0  0  0
 23 39  1  0  0  0
 23 40  1  0  0  0
M  END
> <chembl_id>
CHEMBL2006450

> <chembl_pref_name>
None

> <s_m_source_file>
sdf/inactives_sanitized.sdf

> <i_m_source_file_index>
84

> <i_lp_mmshare_version>
49012

> <i_m_ct_stereo_status>
1

> <i_f3d_flags>
0

> <s_epik_input>
W0NIM11bQ0gyXVtDSDJdW0NIMl1DKD1PKVtOSF1jKG5jKENsKVtjSF0xKVtjSF1jMS1jMltjSF1bbkhdYyhjMjMpbltjSF1bY0hdW2NIXTM=

> <s_epik_cmdline>
J2VwaWtfcHl0aG9uJywgJy1waHQnLCAnMC41JywgJy1waCcsICc3LjUnLCAnLW50JywgJy1tYScsICcyMDAnLCAnLWltYWUnLCAnPGluZmlsZS5tYWU+JywgJy1vbWFlJywgJzxvdXRmaWxlLm1hZT4n

> <r_lp_tautomer_probability>
1

> <r_epik_Ionization_Penalty>
  0.0006

> <r_epik_Ionization_Penalty_Charging>
  0.0000

> <r_epik_Ionization_Penalty_Neutral>
  0.0006

> <r_epik_State_Penalty>
 -0.0000

> <r_epik_Charging_Adjusted_Penalty>
0

> <i_epik_Tot_Q>
0

> <i_epik_Tot_abs_Q>
0

> <s_lp_Force_Field>
OPLS3e

> <r_lp_Energy>
28.208537

> <b_lp_Chiralities_Consistent>
1

> <s_lp_Variant>
sdf/inactives_sanitized.sdf:84-1

$$$$
sdf/inactives_sanitized.sdf:85
                    3D
 Schrodinger Suite 2020-1.
 47 50  0  0  1  0            999 V2000
   -4.3370    0.2376    0.0269 N   0  0  0  0  0  0
   -4.9881    1.4143    0.1749 C   0  0  0  0  0  0
   -4.3322    2.6371    0.2691 C   0  0  0  0  0  0
   -2.9420    2.6570    0.2188 C   0  0  0  0  0  0
   -2.2288    1.4410    0.0662 C   0  0  0  0  0  0
   -0.8167    1.4070    0.0471 C   0  0  0  0  0  0
   -0.1361    0.1923   -0.0654 C   0  0  0  0  0  0
   -0.8615   -0.9903   -0.1851 C   0  0  0  0  0  0
   -2.2576   -1.0114   -0.2200 C   0  0  0  0  0  0
   -2.9715    0.2237   -0.0554 C   0  0  0  0  0  0
   -6.3784    1.3647    0.2333 N   0  0  0  0  0  0
    1.2665    0.0965   -0.0609 N   0  0  0  0  0  0
   -2.8444   -2.2831   -0.3795 N   0  0  0  0  0  0
   -3.9806   -2.7207   -1.0773 C   0  0  0  0  0  0
   -4.3492   -4.0076   -0.8412 N   0  0  0  0  0  0
   -5.4274   -4.4732   -1.5258 C   0  0  0  0  0  0
   -6.1274   -3.6879   -2.4437 C   0  0  0  0  0  0
   -5.6649   -2.3850   -2.6355 C   0  0  0  0  0  0
   -4.5895   -1.8902   -1.9695 N   0  0  0  0  0  0
    2.1077    1.2791   -0.2151 C   0  0  0  0  0  0
    3.6139    0.9797   -0.1173 C   0  0  0  0  0  0
    4.1386    0.1177   -1.2589 C   0  0  0  0  0  0
    4.3171   -1.2563   -1.0739 C   0  0  0  0  0  0
    4.7968   -2.0417   -2.1190 C   0  0  0  0  0  0
    5.0957   -1.4510   -3.3450 C   0  0  0  0  0  0
    4.9182   -0.0823   -3.5364 C   0  0  0  0  0  0
    4.4389    0.7036   -2.4917 C   0  0  0  0  0  0
   -4.8842    3.5583    0.3880 H   0  0  0  0  0  0
   -2.4044    3.5902    0.3051 H   0  0  0  0  0  0
   -0.2845    2.3418    0.1418 H   0  0  0  0  0  0
   -0.3212   -1.9230   -0.2793 H   0  0  0  0  0  0
   -6.9045    2.2187    0.3466 H   0  0  0  0  0  0
   -6.8407    0.4697    0.1633 H   0  0  0  0  0  0
    1.6495   -0.7709   -0.4088 H   0  0  0  0  0  0
   -2.3322   -3.0314    0.0637 H   0  0  0  0  0  0
   -5.7243   -5.4928   -1.3285 H   0  0  0  0  0  0
   -6.9825   -4.0702   -2.9813 H   0  0  0  0  0  0
   -6.1521   -1.7188   -3.3322 H   0  0  0  0  0  0
    1.8399    1.9828    0.5737 H   0  0  0  0  0  0
    1.8737    1.8013   -1.1441 H   0  0  0  0  0  0
    4.1700    1.9182   -0.1088 H   0  0  0  0  0  0
    3.8438    0.5075    0.8396 H   0  0  0  0  0  0
    4.0838   -1.7160   -0.1242 H   0  0  0  0  0  0
    4.9373   -3.1035   -1.9801 H   0  0  0  0  0  0
    5.4684   -2.0602   -4.1554 H   0  0  0  0  0  0
    5.1517    0.3669   -4.4906 H   0  0  0  0  0  0
    4.3002    1.7646   -2.6412 H   0  0  0  0  0  0
  1  2  2  0  0  0
  1 10  1  0  0  0
  2  3  1  0  0  0
  2 11  1  0  0  0
  3  4  2  0  0  0
  3 28  1  0  0  0
  4  5  1  0  0  0
  4 29  1  0  0  0
  5  6  2  0  0  0
  5 10  1  0  0  0
  6  7  1  0  0  0
  6 30  1  0  0  0
  7  8  2  0  0  0
  7 12  1  0  0  0
  8  9  1  0  0  0
  8 31  1  0  0  0
  9 10  2  0  0  0
  9 13  1  0  0  0
 11 32  1  0  0  0
 11 33  1  0  0  0
 12 20  1  0  0  0
 12 34  1  0  0  0
 13 14  1  0  0  0
 13 35  1  0  0  0
 14 15  2  0  0  0
 14 19  1  0  0  0
 15 16  1  0  0  0
 16 17  2  0  0  0
 16 36  1  0  0  0
 17 18  1  0  0  0
 17 37  1  0  0  0
 18 19  2  0  0  0
 18 38  1  0  0  0
 20 21  1  0  0  0
 20 39  1  0  0  0
 20 40  1  0  0  0
 21 22  1  0  0  0
 21 41  1  0  0  0
 21 42  1  0  0  0
 22 23  2  0  0  0
 22 27  1  0  0  0
 23 24  1  0  0  0
 23 43  1  0  0  0
 24 25  2  0  0  0
 24 44  1  0  0  0
 25 26  1  0  0  0
 25 45  1  0  0  0
 26 27  2  0  0  0
 26 46  1  0  0  0
 27 47  1  0  0  0
M  END
> <chembl_id>
CHEMBL550275

> <chembl_pref_name>
None

> <s_m_source_file>
sdf/inactives_sanitized.sdf

> <i_m_source_file_index>
85

> <i_lp_mmshare_version>
49012

> <i_m_ct_stereo_status>
1

> <i_f3d_flags>
0

> <s_epik_input>
bjFbY0hdW2NIXVtjSF1uYzFbTkhdYyhjKGMyMyluYyhbTkgyXSlbY0hdW2NIXTIpW2NIXWMoW2NIXTMpW05IXVtDSDJdW0NIMl1jNFtjSF1bY0hdW2NIXVtjSF1bY0hdNA==

> <s_epik_cmdline>
J2VwaWtfcHl0aG9uJywgJy1waHQnLCAnMC41JywgJy1waCcsICc3LjUnLCAnLW50JywgJy1tYScsICcyMDAnLCAnLWltYWUnLCAnPGluZmlsZS5tYWU+JywgJy1vbWFlJywgJzxvdXRmaWxlLm1hZT4n

> <r_lp_tautomer_probability>
0.999999987636

> <r_epik_Ionization_Penalty>
  0.1869

> <r_epik_Ionization_Penalty_Charging>
  0.0000

> <r_epik_Ionization_Penalty_Neutral>
  0.1869

> <r_epik_State_Penalty>
  0.1760

> <r_epik_Charging_Adjusted_Penalty>
0.175954060061594

> <i_epik_Tot_Q>
0

> <i_epik_Tot_abs_Q>
0

> <s_lp_Force_Field>
OPLS3e

> <r_lp_Energy>
46.50271

> <b_lp_Chiralities_Consistent>
1

> <s_lp_Variant>
sdf/inactives_sanitized.sdf:85-1

$$$$
sdf/inactives_sanitized.sdf:86
                    3D
 Schrodinger Suite 2020-1.
 70 73  0  0  1  0            999 V2000
   -9.4073    2.6335    1.1188 O   0  0  0  0  0  0
   -0.5025    2.3193    0.0835 O   0  0  0  0  0  0
    5.5766    1.4115   -2.7075 O   0  0  0  0  0  0
   -5.6020    2.1782   -0.7043 N   0  0  0  0  0  0
   -5.3849    2.9451   -1.7885 N   0  0  0  0  0  0
   -7.2768    1.8103    1.0153 N   0  0  0  0  0  0
   -8.5510    1.2143    2.7079 N   0  0  0  0  0  0
    0.1026    0.1351    0.0761 N   0  0  0  0  0  0
   -6.8353    2.4393   -0.1401 C   0  0  0  0  0  0
   -6.4557    3.6957   -1.9596 C   0  0  0  0  0  0
   -4.6115    1.2462   -0.3053 C   0  0  0  0  0  0
   -7.3936    3.4149   -0.9561 C   0  0  0  0  0  0
   -6.5703    4.7072   -3.1117 C   0  0  0  0  0  0
   -3.2565    1.6076   -0.3091 C   0  0  0  0  0  0
   -2.2635    0.7015    0.0941 C   0  0  0  0  0  0
   -4.9758   -0.0415    0.1048 C   0  0  0  0  0  0
   -8.4922    1.9482    1.5779 C   0  0  0  0  0  0
   -9.5786    1.0971    3.6719 C   0  0  0  0  0  0
   -9.4437    0.0811    4.6780 C   0  0  0  0  0  0
  -10.4551   -0.0414    5.6852 C   0  0  0  0  0  0
   -2.6564   -0.5832    0.5057 C   0  0  0  0  0  0
   -4.0009   -0.9506    0.5079 C   0  0  0  0  0  0
   -0.8110    1.1255    0.0931 C   0  0  0  0  0  0
   -7.8788    4.4450   -3.8928 C   0  0  0  0  0  0
   -5.3846    4.6131   -4.1081 C   0  0  0  0  0  0
   -6.6087    6.1349   -2.5219 C   0  0  0  0  0  0
  -10.6864    1.9588    3.7218 C   0  0  0  0  0  0
   -8.3434   -0.8279    4.7267 C   0  0  0  0  0  0
  -11.5600    0.8403    5.6729 C   0  0  0  0  0  0
  -10.3355   -1.0418    6.6824 C   0  0  0  0  0  0
  -11.6617    1.8255    4.7009 C   0  0  0  0  0  0
   -8.2567   -1.7975    5.7209 C   0  0  0  0  0  0
   -9.2442   -1.9034    6.6912 C   0  0  0  0  0  0
    1.5516    0.3261    0.0476 C   0  0  0  0  0  0
    2.0958    0.7491   -1.3312 C   0  0  0  0  0  0
    3.6292    0.8788   -1.3567 C   0  0  0  0  0  0
    4.1695    1.3025   -2.7321 C   0  0  0  0  0  0
    5.8772    1.6869   -3.5767 H   0  0  0  0  0  0
   -6.6141    1.1969    1.4667 H   0  0  0  0  0  0
   -7.7180    0.6926    2.9372 H   0  0  0  0  0  0
   -0.2227   -0.8205    0.0868 H   0  0  0  0  0  0
   -8.3578    3.8873   -0.8412 H   0  0  0  0  0  0
   -2.9785    2.6048   -0.6229 H   0  0  0  0  0  0
   -6.0106   -0.3517    0.1020 H   0  0  0  0  0  0
   -1.9282   -1.3111    0.8333 H   0  0  0  0  0  0
   -4.2881   -1.9429    0.8227 H   0  0  0  0  0  0
   -8.0075    5.1514   -4.7142 H   0  0  0  0  0  0
   -8.7579    4.5310   -3.2525 H   0  0  0  0  0  0
   -7.8928    3.4410   -4.3192 H   0  0  0  0  0  0
   -5.3142    3.6195   -4.5532 H   0  0  0  0  0  0
   -4.4304    4.8129   -3.6182 H   0  0  0  0  0  0
   -5.4853    5.3291   -4.9250 H   0  0  0  0  0  0
   -6.7162    6.8918   -3.3000 H   0  0  0  0  0  0
   -5.6960    6.3605   -1.9684 H   0  0  0  0  0  0
   -7.4408    6.2615   -1.8275 H   0  0  0  0  0  0
  -10.8183    2.7599    3.0135 H   0  0  0  0  0  0
   -7.5599   -0.7730    3.9853 H   0  0  0  0  0  0
  -12.3245    0.7494    6.4315 H   0  0  0  0  0  0
  -11.0994   -1.1319    7.4415 H   0  0  0  0  0  0
  -12.5052    2.5002    4.7095 H   0  0  0  0  0  0
   -7.4147   -2.4739    5.7383 H   0  0  0  0  0  0
   -9.1639   -2.6604    7.4573 H   0  0  0  0  0  0
    1.8618    1.0406    0.8129 H   0  0  0  0  0  0
    2.0227   -0.6106    0.3482 H   0  0  0  0  0  0
    1.7816    0.0233   -2.0830 H   0  0  0  0  0  0
    1.6522    1.7030   -1.6210 H   0  0  0  0  0  0
    3.9402    1.6068   -0.6054 H   0  0  0  0  0  0
    4.0760   -0.0744   -1.0693 H   0  0  0  0  0  0
    3.7284    2.2512   -3.0399 H   0  0  0  0  0  0
    3.8650    0.5887   -3.4984 H   0  0  0  0  0  0
  1 17  2  0  0  0
  2 23  2  0  0  0
  3 37  1  0  0  0
  3 38  1  0  0  0
  4  5  1  0  0  0
  4  9  1  0  0  0
  4 11  1  0  0  0
  5 10  2  0  0  0
  6  9  1  0  0  0
  6 17  1  0  0  0
  6 39  1  0  0  0
  7 17  1  0  0  0
  7 18  1  0  0  0
  7 40  1  0  0  0
  8 23  1  0  0  0
  8 34  1  0  0  0
  8 41  1  0  0  0
  9 12  2  0  0  0
 10 12  1  0  0  0
 10 13  1  0  0  0
 11 14  2  0  0  0
 11 16  1  0  0  0
 12 42  1  0  0  0
 13 24  1  0  0  0
 13 25  1  0  0  0
 13 26  1  0  0  0
 14 15  1  0  0  0
 14 43  1  0  0  0
 15 21  2  0  0  0
 15 23  1  0  0  0
 16 22  2  0  0  0
 16 44  1  0  0  0
 18 19  1  0  0  0
 18 27  2  0  0  0
 19 20  2  0  0  0
 19 28  1  0  0  0
 20 29  1  0  0  0
 20 30  1  0  0  0
 21 22  1  0  0  0
 21 45  1  0  0  0
 22 46  1  0  0  0
 24 47  1  0  0  0
 24 48  1  0  0  0
 24 49  1  0  0  0
 25 50  1  0  0  0
 25 51  1  0  0  0
 25 52  1  0  0  0
 26 53  1  0  0  0
 26 54  1  0  0  0
 26 55  1  0  0  0
 27 31  1  0  0  0
 27 56  1  0  0  0
 28 32  2  0  0  0
 28 57  1  0  0  0
 29 31  2  0  0  0
 29 58  1  0  0  0
 30 33  2  0  0  0
 30 59  1  0  0  0
 31 60  1  0  0  0
 32 33  1  0  0  0
 32 61  1  0  0  0
 33 62  1  0  0  0
 34 35  1  0  0  0
 34 63  1  0  0  0
 34 64  1  0  0  0
 35 36  1  0  0  0
 35 65  1  0  0  0
 35 66  1  0  0  0
 36 37  1  0  0  0
 36 67  1  0  0  0
 36 68  1  0  0  0
 37 69  1  0  0  0
 37 70  1  0  0  0
M  END
> <chembl_id>
CHEMBL1994977

> <chembl_pref_name>
None

> <s_m_source_file>
sdf/inactives_sanitized.sdf

> <i_m_source_file_index>
86

> <i_lp_mmshare_version>
49012

> <i_m_ct_stereo_status>
1

> <i_f3d_flags>
0

> <s_epik_input>
W2NIXTFbY0hdW2NIXVtjSF1jKGMxMilbY0hdW2NIXVtjSF1jMltOSF1DKD1PKVtOSF1jM1tjSF1jKEMoW0NIM10pKFtDSDNdKVtDSDNdKW5uMy1jNFtjSF1jKFtjSF1bY0hdW2NIXTQpQyg9TylbTkhdW0NIMl1bQ0gyXVtDSDJdW0NIMl1bT0hd

> <s_epik_cmdline>
J2VwaWtfcHl0aG9uJywgJy1waHQnLCAnMC41JywgJy1waCcsICc3LjUnLCAnLW50JywgJy1tYScsICcyMDAnLCAnLWltYWUnLCAnPGluZmlsZS5tYWU+JywgJy1vbWFlJywgJzxvdXRmaWxlLm1hZT4n

> <r_lp_tautomer_probability>
1

> <r_epik_Ionization_Penalty>
  0.0000

> <r_epik_Ionization_Penalty_Charging>
  0.0000

> <r_epik_Ionization_Penalty_Neutral>
  0.0000

> <r_epik_State_Penalty>
 -0.0000

> <r_epik_Charging_Adjusted_Penalty>
0

> <i_epik_Tot_Q>
0

> <i_epik_Tot_abs_Q>
0

> <s_lp_Force_Field>
OPLS3e

> <r_lp_Energy>
58.126376

> <b_lp_Chiralities_Consistent>
1

> <s_lp_Variant>
sdf/inactives_sanitized.sdf:86-1

$$$$
sdf/inactives_sanitized.sdf:87
                    3D
 Schrodinger Suite 2020-1.
 27 30  0  0  1  0            999 V2000
    4.4641    0.0032   -2.1982 O   0  0  0  0  0  0
    5.5927    0.0062   -0.2250 O   0  0  0  0  0  0
   -0.6227   -1.2010   -0.0015 N   0  0  0  0  0  0
   -2.8055   -0.1050    0.0005 N   0  0  0  0  0  0
   -2.6871    2.3258    0.0002 N   0  0  0  0  0  0
    0.0063    0.0051   -0.0016 C   0  0  0  0  0  0
   -0.7280    1.2059   -0.0008 C   0  0  0  0  0  0
    1.4838   -0.0198   -0.0021 C   0  0  0  0  0  0
    3.5790   -0.0072   -1.1685 C   0  0  0  0  0  0
   -2.1443    1.0589   -0.0000 C   0  0  0  0  0  0
    4.2564   -0.0046    0.0161 C   0  0  0  0  0  0
    2.1890   -0.0127   -1.2178 C   0  0  0  0  0  0
    2.1927   -0.0117    1.2158 C   0  0  0  0  0  0
    3.5941   -0.0066    1.2385 C   0  0  0  0  0  0
   -0.4495    2.6125   -0.0007 C   0  0  0  0  0  0
   -1.9809   -1.1874   -0.0005 C   0  0  0  0  0  0
   -1.6740    3.2566   -0.0001 C   0  0  0  0  0  0
    5.7443    0.0021   -1.6211 C   0  0  0  0  0  0
   -3.6645    2.5797    0.0005 H   0  0  0  0  0  0
    1.6610   -0.0093   -2.1604 H   0  0  0  0  0  0
    1.6517   -0.0076    2.1511 H   0  0  0  0  0  0
    4.1286   -0.0004    2.1768 H   0  0  0  0  0  0
    0.5154    3.0982   -0.0011 H   0  0  0  0  0  0
   -2.4644   -2.1531    0.0001 H   0  0  0  0  0  0
   -1.9150    4.3098   -0.0000 H   0  0  0  0  0  0
    6.2738   -0.9027   -1.9228 H   0  0  0  0  0  0
    6.2784    0.9025   -1.9277 H   0  0  0  0  0  0
  1  9  1  0  0  0
  1 18  1  0  0  0
  2 11  1  0  0  0
  2 18  1  0  0  0
  3  6  2  0  0  0
  3 16  1  0  0  0
  4 10  1  0  0  0
  4 16  2  0  0  0
  5 10  1  0  0  0
  5 17  1  0  0  0
  5 19  1  0  0  0
  6  7  1  0  0  0
  6  8  1  0  0  0
  7 10  2  0  0  0
  7 15  1  0  0  0
  8 12  2  0  0  0
  8 13  1  0  0  0
  9 11  2  0  0  0
  9 12  1  0  0  0
 11 14  1  0  0  0
 12 20  1  0  0  0
 13 14  2  0  0  0
 13 21  1  0  0  0
 14 22  1  0  0  0
 15 17  2  0  0  0
 15 23  1  0  0  0
 16 24  1  0  0  0
 17 25  1  0  0  0
 18 26  1  0  0  0
 18 27  1  0  0  0
M  END
> <chembl_id>
CHEMBL2004515

> <chembl_pref_name>
None

> <s_m_source_file>
sdf/inactives_sanitized.sdf

> <i_m_source_file_index>
87

> <i_lp_mmshare_version>
49012

> <i_m_ct_stereo_status>
1

> <i_f3d_flags>
0

> <s_epik_input>
TzFbQ0gyXU9jKGMxMilbY0hdW2NIXWMoW2NIXTIpLWMzbltjSF1uYyhjMzQpW25IXVtjSF1bY0hdNA==

> <s_epik_cmdline>
J2VwaWtfcHl0aG9uJywgJy1waHQnLCAnMC41JywgJy1waCcsICc3LjUnLCAnLW50JywgJy1tYScsICcyMDAnLCAnLWltYWUnLCAnPGluZmlsZS5tYWU+JywgJy1vbWFlJywgJzxvdXRmaWxlLm1hZT4n

> <r_lp_tautomer_probability>
1

> <r_epik_Ionization_Penalty>
  0.0000

> <r_epik_Ionization_Penalty_Charging>
  0.0000

> <r_epik_Ionization_Penalty_Neutral>
  0.0000

> <r_epik_State_Penalty>
 -0.0000

> <r_epik_Charging_Adjusted_Penalty>
0

> <i_epik_Tot_Q>
0

> <i_epik_Tot_abs_Q>
0

> <s_epik_Chemistry_Notes>
This compound contains an acetal/aminal-like group ( X-CH(R)-Y where X, Y are N, S, or O) that may be acid/base labile, releasing an aldehyde.

> <s_lp_Force_Field>
OPLS3e

> <r_lp_Energy>
39.464348

> <b_lp_Chiralities_Consistent>
1

> <s_lp_Variant>
sdf/inactives_sanitized.sdf:87-1

$$$$
sdf/inactives_sanitized.sdf:88
                    3D
 Schrodinger Suite 2020-1.
 40 42  0  0  1  0            999 V2000
    2.1699    1.2479    0.0647 O   0  0  0  0  0  0
   -4.9804   -0.9497    0.7086 N   0  0  0  0  0  0
   -7.7318    0.7984   -0.5864 N   0  0  0  0  0  0
   -7.3278   -1.5036    1.0644 N   0  0  0  0  0  0
   -4.2791    0.0290    0.0308 C   0  0  0  0  0  0
   -5.1964    0.8871   -0.5998 C   0  0  0  0  0  0
   -6.4990    0.3804   -0.2599 C   0  0  0  0  0  0
   -6.3314   -0.7662    0.5593 C   0  0  0  0  0  0
   -2.7822    0.0300    0.0450 C   0  0  0  0  0  0
    0.0318    0.0041    0.0506 C   0  0  0  0  0  0
   -2.0845   -1.1818    0.0292 C   0  0  0  0  0  0
   -2.0642    1.2279    0.0753 C   0  0  0  0  0  0
   -4.9338    2.0884   -1.4926 C   0  0  0  0  0  0
    1.5745   -0.0404    0.0469 C   0  0  0  0  0  0
   -0.6929   -1.1938    0.0303 C   0  0  0  0  0  0
   -0.6723    1.2165    0.0763 C   0  0  0  0  0  0
   -8.7675    0.0683   -0.0877 C   0  0  0  0  0  0
   -8.5661   -1.0557    0.7189 C   0  0  0  0  0  0
   -4.2773    1.6950   -2.8234 C   0  0  0  0  0  0
    2.1029   -0.7115   -1.2405 C   0  0  0  0  0  0
    2.1080   -0.7488    1.3117 C   0  0  0  0  0  0
    3.1237    1.1419    0.0639 H   0  0  0  0  0  0
   -4.5171   -1.6770    1.2338 H   0  0  0  0  0  0
   -2.6164   -2.1218    0.0033 H   0  0  0  0  0  0
   -2.5732    2.1776    0.1147 H   0  0  0  0  0  0
   -5.8666    2.6100   -1.7102 H   0  0  0  0  0  0
   -4.3181    2.8295   -0.9859 H   0  0  0  0  0  0
   -0.1793   -2.1438    0.0125 H   0  0  0  0  0  0
   -0.1528    2.1626    0.1004 H   0  0  0  0  0  0
   -9.7640    0.3963   -0.3451 H   0  0  0  0  0  0
   -9.4060   -1.6168    1.1013 H   0  0  0  0  0  0
   -4.1203    2.5703   -3.4540 H   0  0  0  0  0  0
   -4.9009    0.9934   -3.3787 H   0  0  0  0  0  0
   -3.3075    1.2219   -2.6671 H   0  0  0  0  0  0
    1.7579   -1.7420   -1.3305 H   0  0  0  0  0  0
    3.1935   -0.7415   -1.2625 H   0  0  0  0  0  0
    1.7746   -0.1778   -2.1338 H   0  0  0  0  0  0
    1.7636   -1.7816    1.3724 H   0  0  0  0  0  0
    1.7825   -0.2422    2.2217 H   0  0  0  0  0  0
    3.1988   -0.7790    1.3288 H   0  0  0  0  0  0
  1 14  1  0  0  0
  1 22  1  0  0  0
  2  5  1  0  0  0
  2  8  1  0  0  0
  2 23  1  0  0  0
  3  7  2  0  0  0
  3 17  1  0  0  0
  4  8  2  0  0  0
  4 18  1  0  0  0
  5  6  2  0  0  0
  5  9  1  0  0  0
  6  7  1  0  0  0
  6 13  1  0  0  0
  7  8  1  0  0  0
  9 11  2  0  0  0
  9 12  1  0  0  0
 10 14  1  0  0  0
 10 15  2  0  0  0
 10 16  1  0  0  0
 11 15  1  0  0  0
 11 24  1  0  0  0
 12 16  2  0  0  0
 12 25  1  0  0  0
 13 19  1  0  0  0
 13 26  1  0  0  0
 13 27  1  0  0  0
 14 20  1  0  0  0
 14 21  1  0  0  0
 15 28  1  0  0  0
 16 29  1  0  0  0
 17 18  2  0  0  0
 17 30  1  0  0  0
 18 31  1  0  0  0
 19 32  1  0  0  0
 19 33  1  0  0  0
 19 34  1  0  0  0
 20 35  1  0  0  0
 20 36  1  0  0  0
 20 37  1  0  0  0
 21 38  1  0  0  0
 21 39  1  0  0  0
 21 40  1  0  0  0
M  END
> <chembl_id>
CHEMBL1976420

> <chembl_pref_name>
None

> <s_m_source_file>
sdf/inactives_sanitized.sdf

> <i_m_source_file_index>
88

> <i_lp_mmshare_version>
49012

> <i_m_ct_stereo_status>
1

> <i_f3d_flags>
0

> <s_epik_input>
W09IXUMoW0NIM10pKFtDSDNdKWMoW2NIXVtjSF0xKVtjSF1bY0hdYzEtYyhjMltDSDJdW0NIM10pW25IXWMoYzIzKW5bY0hdW2NIXW4z

> <s_epik_cmdline>
J2VwaWtfcHl0aG9uJywgJy1waHQnLCAnMC41JywgJy1waCcsICc3LjUnLCAnLW50JywgJy1tYScsICcyMDAnLCAnLWltYWUnLCAnPGluZmlsZS5tYWU+JywgJy1vbWFlJywgJzxvdXRmaWxlLm1hZT4n

> <r_lp_tautomer_probability>
1

> <r_epik_Ionization_Penalty>
  0.0000

> <r_epik_Ionization_Penalty_Charging>
  0.0000

> <r_epik_Ionization_Penalty_Neutral>
  0.0000

> <r_epik_State_Penalty>
 -0.0000

> <r_epik_Charging_Adjusted_Penalty>
0

> <i_epik_Tot_Q>
0

> <i_epik_Tot_abs_Q>
0

> <s_lp_Force_Field>
OPLS3e

> <r_lp_Energy>
29.81099

> <b_lp_Chiralities_Consistent>
1

> <s_lp_Variant>
sdf/inactives_sanitized.sdf:88-1

$$$$
sdf/inactives_sanitized.sdf:89
                    3D
 Schrodinger Suite 2020-1.
 35 38  0  0  1  0            999 V2000
    2.7727    9.8574   -0.0000 Br  0  0  0  0  0  0
    0.0042   -0.1178    0.0000 O   0  0  0  0  0  0
    5.5226    0.2429   -0.0000 N   0  0  0  0  0  0
    5.4096    4.5629   -0.0000 N   0  0  0  0  0  0
    2.9124    7.0342   -0.0000 N   0  0  0  0  0  0
    5.7740    6.9792   -0.0000 N   0  0  0  0  0  0
    4.4829    2.2655   -0.0000 C   0  0  0  0  0  0
    3.4806    1.2259   -0.0000 C   0  0  0  0  0  0
    4.3121    3.7212   -0.0000 C   0  0  0  0  0  0
    4.1670   -0.0297   -0.0000 C   0  0  0  0  0  0
    3.5922    5.8801   -0.0000 C   0  0  0  0  0  0
    5.0108    5.8803   -0.0000 C   0  0  0  0  0  0
    5.6992    1.6044   -0.0000 C   0  0  0  0  0  0
    3.1672    4.5150   -0.0000 C   0  0  0  0  0  0
    2.0741    1.2132   -0.0000 C   0  0  0  0  0  0
    3.4848   -1.2517    0.0000 C   0  0  0  0  0  0
    1.3816   -0.0074    0.0000 C   0  0  0  0  0  0
    3.6597    8.1740   -0.0000 C   0  0  0  0  0  0
    2.0931   -1.2045    0.0000 C   0  0  0  0  0  0
    5.0591    8.1383   -0.0000 C   0  0  0  0  0  0
    6.5928   -0.7421   -0.0000 C   0  0  0  0  0  0
   -0.7913    1.0626    0.0000 C   0  0  0  0  0  0
    6.3563    4.2122   -0.0000 H   0  0  0  0  0  0
    6.7028    2.0050   -0.0000 H   0  0  0  0  0  0
    2.1487    4.1631   -0.0000 H   0  0  0  0  0  0
    1.5320    2.1426   -0.0000 H   0  0  0  0  0  0
    4.0058   -2.1979    0.0000 H   0  0  0  0  0  0
    1.5463   -2.1365    0.0000 H   0  0  0  0  0  0
    5.6320    9.0540   -0.0000 H   0  0  0  0  0  0
    7.5663   -0.2496   -0.0000 H   0  0  0  0  0  0
    6.5063   -1.3680   -0.8888 H   0  0  0  0  0  0
    6.5063   -1.3680    0.8888 H   0  0  0  0  0  0
   -1.8451    0.7849    0.0000 H   0  0  0  0  0  0
   -0.6094    1.6680   -0.8892 H   0  0  0  0  0  0
   -0.6094    1.6680    0.8892 H   0  0  0  0  0  0
  1 18  1  0  0  0
  2 17  1  0  0  0
  2 22  1  0  0  0
  3 10  1  0  0  0
  3 13  1  0  0  0
  3 21  1  0  0  0
  4  9  1  0  0  0
  4 12  1  0  0  0
  4 23  1  0  0  0
  5 11  2  0  0  0
  5 18  1  0  0  0
  6 12  2  0  0  0
  6 20  1  0  0  0
  7  8  1  0  0  0
  7  9  1  0  0  0
  7 13  2  0  0  0
  8 10  2  0  0  0
  8 15  1  0  0  0
  9 14  2  0  0  0
 10 16  1  0  0  0
 11 12  1  0  0  0
 11 14  1  0  0  0
 13 24  1  0  0  0
 14 25  1  0  0  0
 15 17  2  0  0  0
 15 26  1  0  0  0
 16 19  2  0  0  0
 16 27  1  0  0  0
 17 19  1  0  0  0
 18 20  2  0  0  0
 19 28  1  0  0  0
 20 29  1  0  0  0
 21 30  1  0  0  0
 21 31  1  0  0  0
 21 32  1  0  0  0
 22 33  1  0  0  0
 22 34  1  0  0  0
 22 35  1  0  0  0
M  END
> <chembl_id>
CHEMBL2005478

> <chembl_pref_name>
None

> <s_m_source_file>
sdf/inactives_sanitized.sdf

> <i_m_source_file_index>
89

> <i_lp_mmshare_version>
49012

> <i_m_ct_stereo_status>
1

> <i_f3d_flags>
0

> <s_epik_input>
QnJjKG4xKVtjSF1uYyhjMTIpW25IXWMoW2NIXTIpLWMzW2NIXW4oW0NIM10pYyhjMzQpW2NIXVtjSF1jKFtjSF00KU9bQ0gzXQ==

> <s_epik_cmdline>
J2VwaWtfcHl0aG9uJywgJy1waHQnLCAnMC41JywgJy1waCcsICc3LjUnLCAnLW50JywgJy1tYScsICcyMDAnLCAnLWltYWUnLCAnPGluZmlsZS5tYWU+JywgJy1vbWFlJywgJzxvdXRmaWxlLm1hZT4n

> <r_lp_tautomer_probability>
1

> <r_epik_Ionization_Penalty>
  0.0001

> <r_epik_Ionization_Penalty_Charging>
  0.0000

> <r_epik_Ionization_Penalty_Neutral>
  0.0001

> <r_epik_State_Penalty>
 -0.0000

> <r_epik_Charging_Adjusted_Penalty>
0

> <i_epik_Tot_Q>
0

> <i_epik_Tot_abs_Q>
0

> <s_lp_Force_Field>
OPLS3e

> <r_lp_Energy>
28.697838

> <b_lp_Chiralities_Consistent>
1

> <s_lp_Variant>
sdf/inactives_sanitized.sdf:89-1

$$$$
sdf/inactives_sanitized.sdf:90
                    3D
 Schrodinger Suite 2020-1.
 38 41  0  0  1  0            999 V2000
    4.2147   -0.2035    2.3434 O   0  0  0  0  0  0
   -0.0031    0.3621   -0.0028 O   0  0  0  0  0  0
    4.0845   -0.4929   -2.2655 O   0  5  0  0  0  0
    0.1656    0.4249    2.7146 O   0  0  0  0  0  0
    1.6334    0.4828   -3.6917 N   0  0  0  0  0  0
    0.0073   -0.6302   -2.7074 N   0  3  0  0  0  0
    2.0272   -0.0832   -1.2115 C   0  0  0  0  0  0
    2.0502    0.0743    1.2381 C   0  0  0  0  0  0
    1.3530    0.1240    0.0113 C   0  0  0  0  0  0
    3.4386   -0.1466    1.2022 C   0  0  0  0  0  0
    1.2483   -0.0773   -2.4967 C   0  0  0  0  0  0
    3.4186   -0.2999   -1.1997 C   0  0  0  0  0  0
    1.3743    0.2427    2.5781 C   0  0  0  0  0  0
    4.1141   -0.3246    0.0037 C   0  0  0  0  0  0
    0.6485    0.2865   -4.6501 C   0  0  0  0  0  0
   -0.3905   -0.4219   -4.0212 C   0  0  0  0  0  0
    3.6114   -0.0444    3.5482 C   0  0  0  0  0  0
    2.2907    0.1669    3.7108 C   0  0  0  0  0  0
    0.5705    0.6590   -5.9957 C   0  0  0  0  0  0
   -1.5514   -0.7843   -4.7116 C   0  0  0  0  0  0
   -0.5912    0.2929   -6.6805 C   0  0  0  0  0  0
   -1.6237   -0.4091   -6.0557 C   0  0  0  0  0  0
   -0.3568    1.7291   -0.1840 C   0  0  0  0  0  0
    4.6371   -0.1394    4.6582 C   0  0  0  0  0  0
    5.1818   -0.4936    0.0174 H   0  0  0  0  0  0
    1.9039    0.2822    4.7127 H   0  0  0  0  0  0
    1.3632    1.2026   -6.4885 H   0  0  0  0  0  0
   -2.3563   -1.3272   -4.2382 H   0  0  0  0  0  0
   -0.6940    0.5605   -7.7220 H   0  0  0  0  0  0
   -2.5026   -0.6692   -6.6276 H   0  0  0  0  0  0
   -1.4421    1.8258   -0.1663 H   0  0  0  0  0  0
   -0.0050    2.1158   -1.1417 H   0  0  0  0  0  0
    0.0456    2.3576    0.6123 H   0  0  0  0  0  0
    4.1750   -0.0066    5.6370 H   0  0  0  0  0  0
    5.4003    0.6295    4.5355 H   0  0  0  0  0  0
    5.1226   -1.1154    4.6416 H   0  0  0  0  0  0
    2.5245    0.9447   -3.8041 H   0  0  0  0  0  0
   -0.5007   -1.1037   -1.9744 H   0  0  0  0  0  0
  1 10  1  0  0  0
  1 17  1  0  0  0
  2  9  1  0  0  0
  2 23  1  0  0  0
  3 12  1  0  0  0
  4 13  2  0  0  0
  5 11  1  0  0  0
  5 15  1  0  0  0
  5 37  1  0  0  0
  6 11  2  0  0  0
  6 16  1  0  0  0
  6 38  1  0  0  0
  7  9  2  0  0  0
  7 11  1  0  0  0
  7 12  1  0  0  0
  8  9  1  0  0  0
  8 10  2  0  0  0
  8 13  1  0  0  0
 10 14  1  0  0  0
 12 14  2  0  0  0
 13 18  1  0  0  0
 14 25  1  0  0  0
 15 16  2  0  0  0
 15 19  1  0  0  0
 16 20  1  0  0  0
 17 18  2  0  0  0
 17 24  1  0  0  0
 18 26  1  0  0  0
 19 21  2  0  0  0
 19 27  1  0  0  0
 20 22  2  0  0  0
 20 28  1  0  0  0
 21 22  1  0  0  0
 21 29  1  0  0  0
 22 30  1  0  0  0
 23 31  1  0  0  0
 23 32  1  0  0  0
 23 33  1  0  0  0
 24 34  1  0  0  0
 24 35  1  0  0  0
 24 36  1  0  0  0
M  CHG  2   3  -1   6   1
M  END
> <chembl_id>
CHEMBL1972355

> <chembl_pref_name>
None

> <s_m_source_file>
sdf/inactives_sanitized.sdf

> <i_m_source_file_index>
90

> <i_lp_mmshare_version>
49012

> <i_m_ct_stereo_status>
1

> <i_f3d_flags>
0

> <s_epik_input>
Tz1jMVtjSF1jKFtDSDNdKW9jKGMxMilbY0hdYyhbT0hdKWMoYzJPW0NIM10pLWMobjMpW25IXWMoYzM0KVtjSF1bY0hdW2NIXVtjSF00

> <s_epik_cmdline>
J2VwaWtfcHl0aG9uJywgJy1waHQnLCAnMC41JywgJy1waCcsICc3LjUnLCAnLW50JywgJy1tYScsICcyMDAnLCAnLWltYWUnLCAnPGluZmlsZS5tYWU+JywgJy1vbWFlJywgJzxvdXRmaWxlLm1hZT4n

> <r_epik_Ionization_Penalty>
  4.7153

> <r_epik_Ionization_Penalty_Charging>
  4.7153

> <r_epik_Ionization_Penalty_Neutral>
  0.0000

> <r_epik_State_Penalty>
  0.0466

> <r_epik_Charging_Adjusted_Penalty>
4.76189346012894

> <i_epik_Tot_Q>
0

> <i_epik_Tot_abs_Q>
2

> <s_lp_Force_Field>
OPLS3e

> <r_lp_Energy>
-3.136753

> <b_lp_Chiralities_Consistent>
1

> <s_lp_Variant>
sdf/inactives_sanitized.sdf:90-1

$$$$
sdf/inactives_sanitized.sdf:91
                    3D
 Schrodinger Suite 2020-1.
 31 33  0  0  1  0            999 V2000
    2.0453   -1.2797   -0.2370 O   0  0  0  0  0  0
   -2.1382   -0.6448    0.0598 N   0  0  0  0  0  0
   -2.0791    0.6842    0.2212 N   0  0  0  0  0  0
   -0.7426    1.0375    0.1964 N   0  0  0  0  0  0
   -6.8326   -3.5632   -0.2541 N   0  0  0  0  0  0
   -6.4935   -4.5191   -1.1383 N   0  0  0  0  0  0
   -3.3675   -1.3411    0.0293 C   0  0  0  0  0  0
   -0.0075   -0.0512    0.0232 C   0  0  0  0  0  0
   -0.8645   -1.1445   -0.0696 C   0  0  0  0  0  0
    1.5191    0.0217   -0.0440 C   0  0  0  0  0  0
   -4.7206   -3.1527   -0.8122 C   0  0  0  0  0  0
   -5.7908   -2.6903   -0.0090 C   0  0  0  0  0  0
   -3.4960   -2.4699   -0.7905 C   0  0  0  0  0  0
   -4.4456   -0.9087    0.8147 C   0  0  0  0  0  0
   -5.6763   -1.5676    0.8152 C   0  0  0  0  0  0
   -5.2510   -4.2959   -1.4809 C   0  0  0  0  0  0
    2.1086    0.5558    1.2782 C   0  0  0  0  0  0
    1.9837    0.8787   -1.2402 C   0  0  0  0  0  0
    3.0023   -1.2169   -0.2768 H   0  0  0  0  0  0
   -7.7599   -3.5455    0.1453 H   0  0  0  0  0  0
   -0.6806   -2.1997   -0.2077 H   0  0  0  0  0  0
   -2.6736   -2.8103   -1.4031 H   0  0  0  0  0  0
   -4.3353   -0.0402    1.4487 H   0  0  0  0  0  0
   -6.4951   -1.2195    1.4275 H   0  0  0  0  0  0
   -4.7489   -4.9384   -2.1890 H   0  0  0  0  0  0
    1.7720    1.5732    1.4823 H   0  0  0  0  0  0
    3.1992    0.5761    1.2551 H   0  0  0  0  0  0
    1.8107   -0.0611    2.1275 H   0  0  0  0  0  0
    1.6416    1.9105   -1.1478 H   0  0  0  0  0  0
    1.5970    0.4915   -2.1842 H   0  0  0  0  0  0
    3.0717    0.9060   -1.3189 H   0  0  0  0  0  0
  1 10  1  0  0  0
  1 19  1  0  0  0
  2  3  1  0  0  0
  2  7  1  0  0  0
  2  9  1  0  0  0
  3  4  2  0  0  0
  4  8  1  0  0  0
  5  6  1  0  0  0
  5 12  1  0  0  0
  5 20  1  0  0  0
  6 16  2  0  0  0
  7 13  2  0  0  0
  7 14  1  0  0  0
  8  9  2  0  0  0
  8 10  1  0  0  0
  9 21  1  0  0  0
 10 17  1  0  0  0
 10 18  1  0  0  0
 11 12  2  0  0  0
 11 13  1  0  0  0
 11 16  1  0  0  0
 12 15  1  0  0  0
 13 22  1  0  0  0
 14 15  2  0  0  0
 14 23  1  0  0  0
 15 24  1  0  0  0
 16 25  1  0  0  0
 17 26  1  0  0  0
 17 27  1  0  0  0
 17 28  1  0  0  0
 18 29  1  0  0  0
 18 30  1  0  0  0
 18 31  1  0  0  0
M  END
> <chembl_id>
CHEMBL2001641

> <chembl_pref_name>
None

> <s_m_source_file>
sdf/inactives_sanitized.sdf

> <i_m_source_file_index>
91

> <i_lp_mmshare_version>
49012

> <i_m_ct_stereo_status>
1

> <i_f3d_flags>
0

> <s_epik_input>
W09IXUMoW0NIM10pKFtDSDNdKWMoW2NIXTEpbm5uMS1jKFtjSF0yKVtjSF1bY0hdYyhjMjMpW25IXW5bY0hdMw==

> <s_epik_cmdline>
J2VwaWtfcHl0aG9uJywgJy1waHQnLCAnMC41JywgJy1waCcsICc3LjUnLCAnLW50JywgJy1tYScsICcyMDAnLCAnLWltYWUnLCAnPGluZmlsZS5tYWU+JywgJy1vbWFlJywgJzxvdXRmaWxlLm1hZT4n

> <r_lp_tautomer_probability>
1

> <r_epik_Ionization_Penalty>
  0.0000

> <r_epik_Ionization_Penalty_Charging>
  0.0000

> <r_epik_Ionization_Penalty_Neutral>
  0.0000

> <r_epik_State_Penalty>
 -0.0000

> <r_epik_Charging_Adjusted_Penalty>
0

> <i_epik_Tot_Q>
0

> <i_epik_Tot_abs_Q>
0

> <s_lp_Force_Field>
OPLS3e

> <r_lp_Energy>
14.078335

> <b_lp_Chiralities_Consistent>
1

> <s_lp_Variant>
sdf/inactives_sanitized.sdf:91-1

$$$$
sdf/inactives_sanitized.sdf:92
                    3D
 Schrodinger Suite 2020-1.
 54 57  0  0  1  0            999 V2000
    3.6774   -1.9028    3.3353 C   0  0  0  0  0  0
    3.9108   -0.5501    2.9504 C   0  0  0  0  0  0
   -7.0545   -3.7102   -0.2009 S   0  0  0  0  0  0
    4.9500    0.0101    3.6349 N   0  0  0  0  0  0
    5.3822   -0.9915    4.4239 N   0  0  0  0  0  0
   -0.8490   -0.8689    1.1873 N   0  0  0  0  0  0
    4.6566   -2.1637    4.3328 C   0  0  0  0  0  0
    3.1117    0.0594    1.9720 C   0  0  0  0  0  0
    2.0766   -0.6735    1.3687 C   0  0  0  0  0  0
   -0.1548   -0.2123    0.2112 C   0  0  0  0  0  0
   -2.1922   -1.0040    1.0533 C   0  0  0  0  0  0
   -6.1623   -3.1755    1.2737 C   0  0  0  0  0  0
    2.6445   -2.6293    2.7294 C   0  0  0  0  0  0
    1.2550   -0.0791    0.3731 N   0  0  0  0  0  0
    1.8660   -2.0040    1.7575 C   0  0  0  0  0  0
   -4.8805   -2.6331    1.1142 C   0  0  0  0  0  0
   -2.8360   -1.6792    2.1011 N   0  0  0  0  0  0
   -2.9193   -0.5090    0.0177 N   0  0  0  0  0  0
   -8.4345   -3.2270   -0.0850 O   0  0  0  0  0  0
   -6.2426   -3.3648   -1.3735 O   0  0  0  0  0  0
   -0.8481    0.3318   -0.8888 C   0  0  0  0  0  0
   -4.1348   -2.2023    2.2180 C   0  0  0  0  0  0
   -7.0872   -5.4606   -0.0943 N   0  0  0  0  0  0
   -6.7074   -3.2900    2.5684 C   0  0  0  0  0  0
   -5.9531   -2.8689    3.6679 C   0  0  0  0  0  0
   -2.2316    0.1555   -0.9432 C   0  0  0  0  0  0
    6.4920   -0.7085    5.3234 C   0  0  0  0  0  0
   -4.6781   -2.3358    3.4954 C   0  0  0  0  0  0
    4.9537   -3.4024    5.1508 C   0  0  0  0  0  0
    1.9727    0.7225   -0.6316 C   0  0  0  0  0  0
   -8.0885   -3.8773    2.8280 C   0  0  0  0  0  0
    3.2880    1.0906    1.7017 H   0  0  0  0  0  0
    2.4533   -3.6565    3.0030 H   0  0  0  0  0  0
    1.0890   -2.5884    1.2873 H   0  0  0  0  0  0
   -4.4537   -2.5647    0.1256 H   0  0  0  0  0  0
   -2.2297   -1.8961    2.8789 H   0  0  0  0  0  0
   -0.3571    0.8740   -1.6824 H   0  0  0  0  0  0
   -6.1705   -5.9069   -0.1821 H   0  0  0  0  0  0
   -7.6418   -5.8277    0.6833 H   0  0  0  0  0  0
   -6.3524   -2.9551    4.6682 H   0  0  0  0  0  0
   -2.8090    0.5520   -1.7656 H   0  0  0  0  0  0
    7.0439   -1.6243    5.5360 H   0  0  0  0  0  0
    6.1024   -0.2967    6.2546 H   0  0  0  0  0  0
    7.1768    0.0091    4.8678 H   0  0  0  0  0  0
   -4.1164   -2.0217    4.3636 H   0  0  0  0  0  0
    4.1311   -4.1168    5.1124 H   0  0  0  0  0  0
    5.1196   -3.1682    6.2026 H   0  0  0  0  0  0
    5.8428   -3.9181    4.7880 H   0  0  0  0  0  0
    1.7888    0.3393   -1.6359 H   0  0  0  0  0  0
    3.0559    0.7053   -0.5071 H   0  0  0  0  0  0
    1.6619    1.7668   -0.5814 H   0  0  0  0  0  0
   -8.2390   -4.1151    3.8819 H   0  0  0  0  0  0
   -8.2284   -4.8068    2.2783 H   0  0  0  0  0  0
   -8.8661   -3.1798    2.5165 H   0  0  0  0  0  0
  1  2  1  0  0  0
  1  7  2  0  0  0
  1 13  1  0  0  0
  2  4  2  0  0  0
  2  8  1  0  0  0
  3 12  1  0  0  0
  3 19  2  0  0  0
  3 20  2  0  0  0
  3 23  1  0  0  0
  4  5  1  0  0  0
  5  7  1  0  0  0
  5 27  1  0  0  0
  6 10  2  0  0  0
  6 11  1  0  0  0
  7 29  1  0  0  0
  8  9  2  0  0  0
  8 32  1  0  0  0
  9 15  1  0  0  0
  9 14  1  0  0  0
 10 14  1  0  0  0
 10 21  1  0  0  0
 11 17  1  0  0  0
 11 18  2  0  0  0
 12 16  2  0  0  0
 12 24  1  0  0  0
 13 15  2  0  0  0
 13 33  1  0  0  0
 14 30  1  0  0  0
 15 34  1  0  0  0
 16 22  1  0  0  0
 16 35  1  0  0  0
 17 22  1  0  0  0
 17 36  1  0  0  0
 18 26  1  0  0  0
 21 26  2  0  0  0
 21 37  1  0  0  0
 22 28  2  0  0  0
 23 38  1  0  0  0
 23 39  1  0  0  0
 24 25  2  0  0  0
 24 31  1  0  0  0
 25 28  1  0  0  0
 25 40  1  0  0  0
 26 41  1  0  0  0
 27 42  1  0  0  0
 27 43  1  0  0  0
 27 44  1  0  0  0
 28 45  1  0  0  0
 29 46  1  0  0  0
 29 47  1  0  0  0
 29 48  1  0  0  0
 30 49  1  0  0  0
 30 50  1  0  0  0
 30 51  1  0  0  0
 31 52  1  0  0  0
 31 53  1  0  0  0
 31 54  1  0  0  0
M  END
> <chembl_id>
CHEMBL477772

> <chembl_pref_name>
PAZOPANIB

> <s_m_source_file>
sdf/inactives_sanitized.sdf

> <i_m_source_file_index>
92

> <i_lp_mmshare_version>
49012

> <i_m_ct_stereo_status>
1

> <i_f3d_flags>
0

> <s_epik_input>
W0NIM11jMW4oW0NIM10pbmMoYzEyKVtjSF1jKFtjSF1bY0hdMilOKFtDSDNdKWMzbmMobltjSF1bY0hdMylbTkhdYyhbY0hdYzRTKD1PKSg9TylbTkgyXSlbY0hdW2NIXWM0W0NIM10=

> <s_epik_cmdline>
J2VwaWtfcHl0aG9uJywgJy1waHQnLCAnMC41JywgJy1waCcsICc3LjUnLCAnLW50JywgJy1tYScsICcyMDAnLCAnLWltYWUnLCAnPGluZmlsZS5tYWU+JywgJy1vbWFlJywgJzxvdXRmaWxlLm1hZT4n

> <r_lp_tautomer_probability>
1

> <r_epik_Ionization_Penalty>
  0.0057

> <r_epik_Ionization_Penalty_Charging>
  0.0000

> <r_epik_Ionization_Penalty_Neutral>
  0.0057

> <r_epik_State_Penalty>
 -0.0000

> <r_epik_Charging_Adjusted_Penalty>
0

> <i_epik_Tot_Q>
0

> <i_epik_Tot_abs_Q>
0

> <s_lp_Force_Field>
OPLS3e

> <r_lp_Energy>
44.440711

> <b_lp_Chiralities_Consistent>
1

> <s_lp_Variant>
sdf/inactives_sanitized.sdf:92-1

$$$$
sdf/inactives_sanitized.sdf:93
                    3D
 Schrodinger Suite 2020-1.
 73 76  0  0  1  0            999 V2000
   -2.5780   -4.3044    4.0869 O   0  0  0  0  0  0
   -0.5394    2.3134    0.2901 O   0  0  0  0  0  0
    1.8412   -0.9738    2.1533 O   0  0  0  0  0  0
   -4.4640   -2.2123    0.9193 N   0  0  0  0  0  0
   -5.3976   -2.9006    0.2375 N   0  0  0  0  0  0
   -3.0666   -2.4177    2.8925 N   0  0  0  0  0  0
   -1.4968   -2.3040    4.4234 N   0  0  0  0  0  0
    0.0463    0.1404   -0.0123 N   0  0  0  0  0  0
   -4.0056   -2.9276    2.0082 C   0  0  0  0  0  0
   -5.5534   -4.0605    0.8471 C   0  0  0  0  0  0
   -4.0661   -0.9314    0.4599 C   0  0  0  0  0  0
   -4.7020   -4.1274    1.9604 C   0  0  0  0  0  0
   -6.5469   -5.1114    0.3249 C   0  0  0  0  0  0
   -2.7148   -0.5610    0.4850 C   0  0  0  0  0  0
   -2.3067    0.7194    0.0792 C   0  0  0  0  0  0
   -5.0188   -0.0132    0.0003 C   0  0  0  0  0  0
   -2.4000   -3.1124    3.8323 C   0  0  0  0  0  0
   -0.5955   -2.5513    5.4837 C   0  0  0  0  0  0
    0.3745   -1.5370    5.7898 C   0  0  0  0  0  0
   -0.8547    1.1320    0.1342 C   0  0  0  0  0  0
    1.2923   -1.7527    6.8683 C   0  0  0  0  0  0
   -3.2804    1.6272   -0.3597 C   0  0  0  0  0  0
   -4.6251    1.2604   -0.4062 C   0  0  0  0  0  0
   -7.0917   -5.9634    1.4968 C   0  0  0  0  0  0
   -5.8175   -6.0350   -0.6752 C   0  0  0  0  0  0
   -7.7591   -4.4526   -0.3836 C   0  0  0  0  0  0
   -0.6346   -3.7130    6.2713 C   0  0  0  0  0  0
    0.4773   -0.3110    5.0649 C   0  0  0  0  0  0
    1.2177   -2.9500    7.6162 C   0  0  0  0  0  0
    2.2618   -0.7643    7.1738 C   0  0  0  0  0  0
    0.2601   -3.9083    7.3146 C   0  0  0  0  0  0
    1.5081    0.2785    0.0541 C   0  0  2  0  0  0
    1.4414    0.6379    5.3913 C   0  0  0  0  0  0
    2.3270    0.4129    6.4368 C   0  0  0  0  0  0
    2.2176   -0.7814   -0.8458 C   0  0  0  0  0  0
    1.9897    0.2884    1.5302 C   0  0  0  0  0  0
    3.7567   -0.6697   -0.8062 C   0  0  0  0  0  0
    1.7276   -0.7421   -2.3105 C   0  0  0  0  0  0
    2.1416   -0.9046    3.0628 H   0  0  0  0  0  0
   -2.8155   -1.4490    2.7596 H   0  0  0  0  0  0
   -1.4688   -1.3547    4.0823 H   0  0  0  0  0  0
   -0.2974   -0.7890   -0.2054 H   0  0  0  0  0  0
   -4.6160   -4.9526    2.6511 H   0  0  0  0  0  0
   -1.9774   -1.2745    0.8245 H   0  0  0  0  0  0
   -6.0670   -0.2744   -0.0281 H   0  0  0  0  0  0
   -3.0024    2.6233   -0.6749 H   0  0  0  0  0  0
   -5.3648    1.9678   -0.7509 H   0  0  0  0  0  0
   -7.8154   -6.7048    1.1549 H   0  0  0  0  0  0
   -7.5890   -5.3422    2.2433 H   0  0  0  0  0  0
   -6.2965   -6.5060    2.0094 H   0  0  0  0  0  0
   -4.9605   -6.5268   -0.2123 H   0  0  0  0  0  0
   -5.4384   -5.4752   -1.5316 H   0  0  0  0  0  0
   -6.4752   -6.8161   -1.0589 H   0  0  0  0  0  0
   -8.4821   -5.1959   -0.7227 H   0  0  0  0  0  0
   -7.4546   -3.8785   -1.2599 H   0  0  0  0  0  0
   -8.2841   -3.7662    0.2823 H   0  0  0  0  0  0
   -1.3608   -4.4914    6.1053 H   0  0  0  0  0  0
   -0.1936   -0.1072    4.2432 H   0  0  0  0  0  0
    1.9075   -3.1145    8.4318 H   0  0  0  0  0  0
    2.9541   -0.9294    7.9870 H   0  0  0  0  0  0
    0.2076   -4.8145    7.9002 H   0  0  0  0  0  0
    1.7630    1.2546   -0.3663 H   0  0  0  0  0  0
    1.5026    1.5562    4.8259 H   0  0  0  0  0  0
    3.0701    1.1581    6.6800 H   0  0  0  0  0  0
    1.9597   -1.7705   -0.4629 H   0  0  0  0  0  0
    1.4160    1.0132    2.1092 H   0  0  0  0  0  0
    3.0232    0.6264    1.6061 H   0  0  0  0  0  0
    4.0935    0.3170   -1.1263 H   0  0  0  0  0  0
    4.2237   -1.4063   -1.4612 H   0  0  0  0  0  0
    4.1509   -0.8483    0.1940 H   0  0  0  0  0  0
    1.9185    0.2295   -2.7678 H   0  0  0  0  0  0
    0.6578   -0.9387   -2.3862 H   0  0  0  0  0  0
    2.2301   -1.4964   -2.9174 H   0  0  0  0  0  0
  1 17  2  0  0  0
  2 20  2  0  0  0
  3 36  1  0  0  0
  3 39  1  0  0  0
  4  5  1  0  0  0
  4  9  1  0  0  0
  4 11  1  0  0  0
  5 10  2  0  0  0
  6  9  1  0  0  0
  6 17  1  0  0  0
  6 40  1  0  0  0
  7 17  1  0  0  0
  7 18  1  0  0  0
  7 41  1  0  0  0
  8 20  1  0  0  0
  8 32  1  0  0  0
  8 42  1  0  0  0
  9 12  2  0  0  0
 10 12  1  0  0  0
 10 13  1  0  0  0
 11 14  2  0  0  0
 11 16  1  0  0  0
 12 43  1  0  0  0
 13 24  1  0  0  0
 13 25  1  0  0  0
 13 26  1  0  0  0
 14 15  1  0  0  0
 14 44  1  0  0  0
 15 20  1  0  0  0
 15 22  2  0  0  0
 16 23  2  0  0  0
 16 45  1  0  0  0
 18 19  1  0  0  0
 18 27  2  0  0  0
 19 21  2  0  0  0
 19 28  1  0  0  0
 21 29  1  0  0  0
 21 30  1  0  0  0
 22 23  1  0  0  0
 22 46  1  0  0  0
 23 47  1  0  0  0
 24 48  1  0  0  0
 24 49  1  0  0  0
 24 50  1  0  0  0
 25 51  1  0  0  0
 25 52  1  0  0  0
 25 53  1  0  0  0
 26 54  1  0  0  0
 26 55  1  0  0  0
 26 56  1  0  0  0
 27 31  1  0  0  0
 27 57  1  0  0  0
 28 33  2  0  0  0
 28 58  1  0  0  0
 29 31  2  0  0  0
 29 59  1  0  0  0
 30 34  2  0  0  0
 30 60  1  0  0  0
 31 61  1  0  0  0
 32 35  1  0  0  0
 32 36  1  0  0  0
 32 62  1  0  0  0
 33 34  1  0  0  0
 33 63  1  0  0  0
 34 64  1  0  0  0
 35 37  1  0  0  0
 35 38  1  0  0  0
 35 65  1  0  0  0
 36 66  1  0  0  0
 36 67  1  0  0  0
 37 68  1  0  0  0
 37 69  1  0  0  0
 37 70  1  0  0  0
 38 71  1  0  0  0
 38 72  1  0  0  0
 38 73  1  0  0  0
M  END
> <chembl_id>
CHEMBL1971223

> <chembl_pref_name>
None

> <s_m_source_file>
sdf/inactives_sanitized.sdf

> <i_m_source_file_index>
93

> <i_lp_mmshare_version>
49012

> <i_m_ct_stereo_status>
1

> <i_f3d_flags>
0

> <s_epik_input>
W2NIXTFbY0hdW2NIXVtjSF1jKGMxMilbY0hdW2NIXVtjSF1jMltOSF1DKD1PKVtOSF1jM1tjSF1jKEMoW0NIM10pKFtDSDNdKVtDSDNdKW5uMy1jNFtjSF1jKFtjSF1bY0hdW2NIXTQpQyg9TylbTkhdW0NASF0oW0NIXShbQ0gzXSlbQ0gzXSlbQ0gyXVtPSF0=

> <s_epik_cmdline>
J2VwaWtfcHl0aG9uJywgJy1waHQnLCAnMC41JywgJy1waCcsICc3LjUnLCAnLW50JywgJy1tYScsICcyMDAnLCAnLWltYWUnLCAnPGluZmlsZS5tYWU+JywgJy1vbWFlJywgJzxvdXRmaWxlLm1hZT4n

> <r_lp_tautomer_probability>
1

> <r_epik_Ionization_Penalty>
  0.0000

> <r_epik_Ionization_Penalty_Charging>
  0.0000

> <r_epik_Ionization_Penalty_Neutral>
  0.0000

> <r_epik_State_Penalty>
 -0.0000

> <r_epik_Charging_Adjusted_Penalty>
0

> <i_epik_Tot_Q>
0

> <i_epik_Tot_abs_Q>
0

> <s_lp_Force_Field>
OPLS3e

> <r_lp_Energy>
57.651064

> <b_lp_Chiralities_Consistent>
1

> <s_lp_Variant>
sdf/inactives_sanitized.sdf:93-1

$$$$
sdf/inactives_sanitized.sdf:94
                    3D
 Schrodinger Suite 2020-1.
 49 53  0  0  1  0            999 V2000
   -0.5705    1.2649   -0.7266 S   0  0  0  0  0  0
   -2.0257    1.3503   -0.5670 O   0  0  0  0  0  0
    0.2623    2.4487   -0.4846 O   0  0  0  0  0  0
    0.9211   -2.9262   -2.4162 N   0  0  0  0  0  0
   -0.2747   -3.2240   -0.5670 N   0  0  0  0  0  0
   -0.0202   -0.0323    0.3340 N   0  0  2  0  0  0
    0.3571   -3.2004   -5.1521 N   0  0  0  0  0  0
    2.6607   -2.4661   -5.4714 N   0  0  0  0  0  0
    0.9098   -2.8627   -1.0335 C   0  0  0  0  0  0
    2.0849   -2.3491   -0.1877 C   0  0  2  0  0  0
    1.9306   -2.6373   -3.3670 C   0  0  0  0  0  0
   -0.3514   -3.3536   -2.8059 C   0  0  0  0  0  0
    1.5561   -2.8003   -4.7170 C   0  0  0  0  0  0
    1.9119   -2.5194    1.3501 C   0  0  2  0  0  0
    1.4095   -0.1752    0.6936 C   0  0  2  0  0  0
    2.2807   -0.8356   -0.3774 C   0  0  0  0  0  0
   -1.0437   -3.5316   -1.5886 C   0  0  0  0  0  0
   -0.2484    0.6217   -2.4825 C   0  0  0  0  0  0
   -0.5738   -3.4745   -4.1918 C   0  0  0  0  0  0
    1.6350   -1.0976    1.9006 C   0  0  0  0  0  0
    3.2944   -2.2032   -3.3139 C   0  0  0  0  0  0
    1.0034    1.0698   -3.1904 C   0  0  0  0  0  0
   -0.3551    1.6201   -3.6023 C   0  0  0  0  0  0
    3.6977   -2.1098   -4.6355 C   0  0  0  0  0  0
    3.1383   -3.2013    2.0018 C   0  0  0  0  0  0
    2.9784   -3.4711    3.5066 C   0  0  0  0  0  0
   -0.5314   -0.9145    0.2421 H   0  0  0  0  0  0
    2.7446   -2.4686   -6.4777 H   0  0  0  0  0  0
    2.9469   -2.9005   -0.5653 H   0  0  0  0  0  0
    1.0558   -3.1544    1.5804 H   0  0  0  0  0  0
    1.7946    0.8193    0.9231 H   0  0  0  0  0  0
    3.3215   -0.5793   -0.1705 H   0  0  0  0  0  0
    2.0707   -0.4948   -1.3868 H   0  0  0  0  0  0
   -2.0631   -3.8574   -1.4426 H   0  0  0  0  0  0
   -0.6259   -0.3911   -2.6189 H   0  0  0  0  0  0
   -1.5358   -3.7978   -4.5619 H   0  0  0  0  0  0
    0.7785   -1.0952    2.5770 H   0  0  0  0  0  0
    2.4857   -0.7306    2.4775 H   0  0  0  0  0  0
    3.9082   -1.9826   -2.4537 H   0  0  0  0  0  0
    1.7037    1.7178   -2.6627 H   0  0  0  0  0  0
    1.5080    0.3592   -3.8451 H   0  0  0  0  0  0
   -0.7981    1.2938   -4.5434 H   0  0  0  0  0  0
   -0.6078    2.6524   -3.3585 H   0  0  0  0  0  0
    4.6470   -1.8180   -5.0602 H   0  0  0  0  0  0
    3.3274   -4.1518    1.5006 H   0  0  0  0  0  0
    4.0304   -2.5952    1.8365 H   0  0  0  0  0  0
    3.8546   -3.9847    3.9034 H   0  0  0  0  0  0
    2.1098   -4.0998    3.7051 H   0  0  0  0  0  0
    2.8578   -2.5463    4.0711 H   0  0  0  0  0  0
  1  2  2  0  0  0
  1  3  2  0  0  0
  1  6  1  0  0  0
  1 18  1  0  0  0
  4  9  1  0  0  0
  4 11  1  0  0  0
  4 12  1  0  0  0
  5  9  2  0  0  0
  5 17  1  0  0  0
  6 15  1  0  0  0
  6 27  1  0  0  0
  7 13  1  0  0  0
  7 19  2  0  0  0
  8 13  1  0  0  0
  8 24  1  0  0  0
  8 28  1  0  0  0
  9 10  1  0  0  0
 10 14  1  0  0  0
 10 16  1  0  0  0
 10 29  1  0  0  0
 11 13  2  0  0  0
 11 21  1  0  0  0
 12 17  2  0  0  0
 12 19  1  0  0  0
 14 20  1  0  0  0
 14 25  1  0  0  0
 14 30  1  0  0  0
 15 16  1  0  0  0
 15 20  1  0  0  0
 15 31  1  0  0  0
 16 32  1  0  0  0
 16 33  1  0  0  0
 17 34  1  0  0  0
 18 22  1  0  0  0
 18 23  1  0  0  0
 18 35  1  0  0  0
 19 36  1  0  0  0
 20 37  1  0  0  0
 20 38  1  0  0  0
 21 24  2  0  0  0
 21 39  1  0  0  0
 22 23  1  0  0  0
 22 40  1  0  0  0
 22 41  1  0  0  0
 23 42  1  0  0  0
 23 43  1  0  0  0
 24 44  1  0  0  0
 25 26  1  0  0  0
 25 45  1  0  0  0
 25 46  1  0  0  0
 26 47  1  0  0  0
 26 48  1  0  0  0
 26 49  1  0  0  0
M  END
> <chembl_id>
CHEMBL1992073

> <chembl_pref_name>
None

> <s_m_source_file>
sdf/inactives_sanitized.sdf

> <i_m_source_file_index>
94

> <i_lp_mmshare_version>
49012

> <i_m_ct_stereo_status>
1

> <i_f3d_flags>
0

> <s_epik_input>
W0NIMl0xW0NIMl1bQ0hdMVMoPU8pKD1PKVtOSF1bQ0BIXShbQ0gyXTIpW0NIMl1bQ0BIXShbQ0gyXVtDSDNdKVtDQEhdMmMzbltjSF1jNFtjSF1uYyhjNW4zNClbbkhdW2NIXVtjSF01

> <s_epik_cmdline>
J2VwaWtfcHl0aG9uJywgJy1waHQnLCAnMC41JywgJy1waCcsICc3LjUnLCAnLW50JywgJy1tYScsICcyMDAnLCAnLWltYWUnLCAnPGluZmlsZS5tYWU+JywgJy1vbWFlJywgJzxvdXRmaWxlLm1hZT4n

> <r_lp_tautomer_probability>
1

> <r_epik_Ionization_Penalty>
  0.0057

> <r_epik_Ionization_Penalty_Charging>
  0.0000

> <r_epik_Ionization_Penalty_Neutral>
  0.0057

> <r_epik_State_Penalty>
 -0.0000

> <r_epik_Charging_Adjusted_Penalty>
0

> <i_epik_Tot_Q>
0

> <i_epik_Tot_abs_Q>
0

> <s_lp_Force_Field>
OPLS3e

> <r_lp_Energy>
30.33355

> <b_lp_Chiralities_Consistent>
1

> <s_lp_Variant>
sdf/inactives_sanitized.sdf:94-1

$$$$
sdf/inactives_sanitized.sdf:95
                    3D
 Schrodinger Suite 2020-1.
 34 36  0  0  1  0            999 V2000
   -1.7348    3.3331   -2.1069 Cl  0  0  0  0  0  0
   -6.1697    5.3118    0.2128 Cl  0  0  0  0  0  0
   -4.3910   -0.7282   -0.9027 O   0  0  0  0  0  0
   -0.6919    1.1800   -0.0120 N   0  0  0  0  0  0
    2.1855    1.1938    0.0501 N   0  0  0  0  0  0
    4.3073    0.0428    0.1139 N   0  0  0  0  0  0
   -3.3879   -2.4526    0.1429 N   0  0  0  0  0  0
    4.2046    2.3861    0.1447 N   0  0  0  0  0  0
   -2.0411    0.9306   -0.0954 C   0  0  0  0  0  0
   -2.1818   -0.4636   -0.1665 C   0  0  0  0  0  0
    0.0523    0.0266   -0.0549 C   0  0  0  0  0  0
   -3.0439    2.0414   -0.0659 C   0  0  0  0  0  0
   -0.8781   -0.9973   -0.1708 C   0  0  0  0  0  0
    1.5442   -0.0089    0.0020 C   0  0  0  0  0  0
   -2.9781    3.1619   -0.9144 C   0  0  0  0  0  0
   -3.4062   -1.2072   -0.3436 C   0  0  0  0  0  0
   -4.0911    1.9521    0.8598 C   0  0  0  0  0  0
   -3.9444    4.1661   -0.8218 C   0  0  0  0  0  0
    2.2498   -1.2192    0.0102 C   0  0  0  0  0  0
   -4.9800    4.0658    0.1063 C   0  0  0  0  0  0
   -5.0536    2.9567    0.9465 C   0  0  0  0  0  0
    3.5418    1.1632    0.1016 C   0  0  0  0  0  0
    3.6433   -1.1420    0.0682 C   0  0  0  0  0  0
   -0.2925    2.1049    0.0607 H   0  0  0  0  0  0
   -4.2023   -3.0426    0.0532 H   0  0  0  0  0  0
   -2.5657   -2.8052    0.6102 H   0  0  0  0  0  0
    5.2136    2.3995    0.1822 H   0  0  0  0  0  0
    3.6698    3.2423    0.1273 H   0  0  0  0  0  0
   -0.6338   -2.0465   -0.2533 H   0  0  0  0  0  0
   -4.1612    1.1009    1.5217 H   0  0  0  0  0  0
   -3.8930    5.0243   -1.4760 H   0  0  0  0  0  0
    1.7480   -2.1749   -0.0237 H   0  0  0  0  0  0
   -5.8539    2.8724    1.6671 H   0  0  0  0  0  0
    4.2476   -2.0372    0.0800 H   0  0  0  0  0  0
  1 15  1  0  0  0
  2 20  1  0  0  0
  3 16  2  0  0  0
  4  9  1  0  0  0
  4 11  1  0  0  0
  4 24  1  0  0  0
  5 14  2  0  0  0
  5 22  1  0  0  0
  6 22  2  0  0  0
  6 23  1  0  0  0
  7 16  1  0  0  0
  7 25  1  0  0  0
  7 26  1  0  0  0
  8 22  1  0  0  0
  8 27  1  0  0  0
  8 28  1  0  0  0
  9 10  2  0  0  0
  9 12  1  0  0  0
 10 13  1  0  0  0
 10 16  1  0  0  0
 11 13  2  0  0  0
 11 14  1  0  0  0
 12 15  2  0  0  0
 12 17  1  0  0  0
 13 29  1  0  0  0
 14 19  1  0  0  0
 15 18  1  0  0  0
 17 21  2  0  0  0
 17 30  1  0  0  0
 18 20  2  0  0  0
 18 31  1  0  0  0
 19 23  2  0  0  0
 19 32  1  0  0  0
 20 21  1  0  0  0
 21 33  1  0  0  0
 23 34  1  0  0  0
M  END
> <chembl_id>
CHEMBL1965660

> <chembl_pref_name>
None

> <s_m_source_file>
sdf/inactives_sanitized.sdf

> <i_m_source_file_index>
95

> <i_lp_mmshare_version>
49012

> <i_m_ct_stereo_status>
1

> <i_f3d_flags>
0

> <s_epik_input>
W2NIXTFbY0hdYyhDbClbY0hdYyhDbCljMS1jMltuSF1jKFtjSF1jMkMoPU8pW05IMl0pLWMzbmMoW05IMl0pbltjSF1bY0hdMw==

> <s_epik_cmdline>
J2VwaWtfcHl0aG9uJywgJy1waHQnLCAnMC41JywgJy1waCcsICc3LjUnLCAnLW50JywgJy1tYScsICcyMDAnLCAnLWltYWUnLCAnPGluZmlsZS5tYWU+JywgJy1vbWFlJywgJzxvdXRmaWxlLm1hZT4n

> <r_lp_tautomer_probability>
1

> <r_epik_Ionization_Penalty>
  0.0003

> <r_epik_Ionization_Penalty_Charging>
  0.0000

> <r_epik_Ionization_Penalty_Neutral>
  0.0003

> <r_epik_State_Penalty>
 -0.0000

> <r_epik_Charging_Adjusted_Penalty>
0

> <i_epik_Tot_Q>
0

> <i_epik_Tot_abs_Q>
0

> <s_lp_Force_Field>
OPLS3e

> <r_lp_Energy>
22.027527

> <b_lp_Chiralities_Consistent>
1

> <s_lp_Variant>
sdf/inactives_sanitized.sdf:95-1

$$$$
sdf/inactives_sanitized.sdf:96
                    3D
 Schrodinger Suite 2020-1.
 27 29  0  0  1  0            999 V2000
   -4.1179   -0.2573    0.0429 N   0  0  0  0  0  0
   -4.3198   -1.5857   -0.0075 N   0  0  0  0  0  0
    3.5926   -0.9528    0.7969 N   0  0  0  0  0  0
   -2.1010   -1.1821   -0.0056 C   0  0  0  0  0  0
   -2.7759    0.0595    0.0448 C   0  0  0  0  0  0
    0.0078    0.0135    0.0276 C   0  0  0  0  0  0
   -3.1434   -2.1625   -0.0386 C   0  0  0  0  0  0
   -0.6976   -1.1974   -0.0137 C   0  0  0  0  0  0
    1.4983    0.0168    0.0228 C   0  0  0  0  0  0
   -2.0965    1.2785    0.0850 C   0  0  0  0  0  0
   -0.7023    1.2205    0.0752 C   0  0  0  0  0  0
    2.2357   -0.9174    0.7656 C   0  0  0  0  0  0
    2.2282    0.9552   -0.7231 C   0  0  0  0  0  0
   -3.0298   -3.6687   -0.1009 C   0  0  0  0  0  0
    3.6240    0.9373   -0.7066 C   0  0  0  0  0  0
    4.2657   -0.0306    0.0651 C   0  0  0  0  0  0
   -4.9033    0.3768    0.0736 H   0  0  0  0  0  0
   -0.1687   -2.1383   -0.0573 H   0  0  0  0  0  0
   -2.6162    2.2245    0.1238 H   0  0  0  0  0  0
   -0.1589    2.1536    0.1136 H   0  0  0  0  0  0
    1.7380   -1.6631    1.3684 H   0  0  0  0  0  0
    1.7185    1.6970   -1.3208 H   0  0  0  0  0  0
   -1.9910   -3.9988   -0.1187 H   0  0  0  0  0  0
   -3.5067   -4.0725   -0.9944 H   0  0  0  0  0  0
   -3.5001   -4.1453    0.7597 H   0  0  0  0  0  0
    4.1921    1.6557   -1.2789 H   0  0  0  0  0  0
    5.3441   -0.0775    0.1050 H   0  0  0  0  0  0
  1  2  1  0  0  0
  1  5  1  0  0  0
  1 17  1  0  0  0
  2  7  2  0  0  0
  3 12  2  0  0  0
  3 16  1  0  0  0
  4  5  2  0  0  0
  4  7  1  0  0  0
  4  8  1  0  0  0
  5 10  1  0  0  0
  6  8  2  0  0  0
  6  9  1  0  0  0
  6 11  1  0  0  0
  7 14  1  0  0  0
  8 18  1  0  0  0
  9 12  1  0  0  0
  9 13  2  0  0  0
 10 11  2  0  0  0
 10 19  1  0  0  0
 11 20  1  0  0  0
 12 21  1  0  0  0
 13 15  1  0  0  0
 13 22  1  0  0  0
 14 23  1  0  0  0
 14 24  1  0  0  0
 14 25  1  0  0  0
 15 16  2  0  0  0
 15 26  1  0  0  0
 16 27  1  0  0  0
M  END
> <chembl_id>
CHEMBL1967252

> <chembl_pref_name>
None

> <s_m_source_file>
sdf/inactives_sanitized.sdf

> <i_m_source_file_index>
96

> <i_lp_mmshare_version>
49012

> <i_m_ct_stereo_status>
1

> <i_f3d_flags>
0

> <s_epik_input>
W0NIM11jMW5bbkhdYyhjMTIpW2NIXVtjSF1jKFtjSF0yKS1jM1tjSF1uW2NIXVtjSF1bY0hdMw==

> <s_epik_cmdline>
J2VwaWtfcHl0aG9uJywgJy1waHQnLCAnMC41JywgJy1waCcsICc3LjUnLCAnLW50JywgJy1tYScsICcyMDAnLCAnLWltYWUnLCAnPGluZmlsZS5tYWU+JywgJy1vbWFlJywgJzxvdXRmaWxlLm1hZT4n

> <r_lp_tautomer_probability>
1

> <r_epik_Ionization_Penalty>
  0.0008

> <r_epik_Ionization_Penalty_Charging>
  0.0000

> <r_epik_Ionization_Penalty_Neutral>
  0.0008

> <r_epik_State_Penalty>
 -0.0000

> <r_epik_Charging_Adjusted_Penalty>
0

> <i_epik_Tot_Q>
0

> <i_epik_Tot_abs_Q>
0

> <s_lp_Force_Field>
OPLS3e

> <r_lp_Energy>
24.64091

> <b_lp_Chiralities_Consistent>
1

> <s_lp_Variant>
sdf/inactives_sanitized.sdf:96-1

$$$$
sdf/inactives_sanitized.sdf:97
                    3D
 Schrodinger Suite 2020-1.
 54 59  0  0  1  0            999 V2000
   -0.5198    2.1217   -0.0302 C   0  0  0  0  0  0
   -1.5531    3.0006   -0.0107 N   0  0  0  0  0  0
   -2.8098    2.4932   -0.0250 C   0  0  0  0  0  0
   -3.1541    1.1797   -0.0557 N   0  0  0  0  0  0
   -0.7824    0.7468   -0.0596 C   0  0  0  0  0  0
   -2.1395    0.3015   -0.0757 C   0  0  0  0  0  0
   -2.1369   -1.1397   -0.0957 C   0  0  0  0  0  0
   -0.7939   -1.4887   -0.0788 C   0  0  0  0  0  0
    0.0214   -0.3785   -0.0765 N   0  0  0  0  0  0
   -3.8543    3.4112   -0.0034 N   0  0  0  0  0  0
    1.4799   -0.4115   -0.0183 C   0  0  0  0  0  0
    1.9946   -0.5595    1.4297 C   0  0  0  0  0  0
   -3.3018   -2.0786   -0.1248 C   0  0  0  0  0  0
  -10.6036    0.4019   -3.0582 C   0  0  0  0  0  0
  -10.9861   -0.8158   -3.6114 C   0  0  0  0  0  0
  -10.2162   -1.9615   -3.4276 C   0  0  0  0  0  0
   -9.4375    0.5147   -2.3024 C   0  0  0  0  0  0
   -8.6327   -0.6191   -2.0928 C   0  0  0  0  0  0
   -9.0419   -1.8573   -2.6674 C   0  0  0  0  0  0
   -7.9060   -3.1424   -2.2931 S   0  0  0  0  0  0
   -6.9040   -2.0347   -1.3718 C   0  0  0  0  0  0
   -7.4160   -0.7497   -1.3687 C   0  0  0  0  0  0
   -5.6438   -2.5208   -0.7342 C   0  0  0  0  0  0
   -4.5165   -1.6911   -0.6998 C   0  0  0  0  0  0
   -3.1821   -3.3386    0.4704 C   0  0  0  0  0  0
   -5.5011   -3.7801   -0.1275 C   0  0  0  0  0  0
   -4.2876   -4.1993    0.4718 C   0  0  0  0  0  0
   -4.5626   -5.5112    0.9599 C   0  0  0  0  0  0
   -5.7937   -5.8688    0.7068 N   0  0  0  0  0  0
   -6.3700   -4.8406    0.0596 N   0  0  0  0  0  0
    1.5829    0.5829    2.3743 C   0  0  0  0  0  0
    2.1940    0.3474    3.7577 N   0  3  0  0  0  0
    0.4814    2.5264   -0.0195 H   0  0  0  0  0  0
   -0.3406   -2.4698   -0.0776 H   0  0  0  0  0  0
   -4.8068    3.0768   -0.0138 H   0  0  0  0  0  0
   -3.6447    4.3987    0.0111 H   0  0  0  0  0  0
    1.8293   -1.2396   -0.6370 H   0  0  0  0  0  0
    1.8619    0.5013   -0.4778 H   0  0  0  0  0  0
    1.6511   -1.5112    1.8385 H   0  0  0  0  0  0
    3.0832   -0.6247    1.4034 H   0  0  0  0  0  0
  -11.2208    1.2741   -3.2177 H   0  0  0  0  0  0
  -11.8947   -0.8727   -4.1931 H   0  0  0  0  0  0
  -10.5192   -2.9036   -3.8611 H   0  0  0  0  0  0
   -9.1595    1.4702   -1.8827 H   0  0  0  0  0  0
   -6.9397    0.0768   -0.8624 H   0  0  0  0  0  0
   -4.5891   -0.7172   -1.1603 H   0  0  0  0  0  0
   -2.2562   -3.6463    0.9331 H   0  0  0  0  0  0
   -3.8908   -6.1761    1.4823 H   0  0  0  0  0  0
   -7.3345   -4.9019   -0.2331 H   0  0  0  0  0  0
    1.9604    1.5563    2.0596 H   0  0  0  0  0  0
    0.5081    0.6343    2.5516 H   0  0  0  0  0  0
    1.9316    1.0943    4.3855 H   0  0  0  0  0  0
    3.2016    0.3163    3.6930 H   0  0  0  0  0  0
    1.8650   -0.5278    4.1402 H   0  0  0  0  0  0
  1  5  2  0  0  0
  1  2  1  0  0  0
  1 33  1  0  0  0
  2  3  2  0  0  0
  3 10  1  0  0  0
  3  4  1  0  0  0
  4  6  2  0  0  0
  5  9  1  0  0  0
  5  6  1  0  0  0
  6  7  1  0  0  0
  7 13  1  0  0  0
  7  8  2  0  0  0
  8  9  1  0  0  0
  8 34  1  0  0  0
  9 11  1  0  0  0
 10 35  1  0  0  0
 10 36  1  0  0  0
 11 12  1  0  0  0
 11 37  1  0  0  0
 11 38  1  0  0  0
 12 31  1  0  0  0
 12 39  1  0  0  0
 12 40  1  0  0  0
 13 24  2  0  0  0
 13 25  1  0  0  0
 14 15  2  0  0  0
 14 17  1  0  0  0
 14 41  1  0  0  0
 15 16  1  0  0  0
 15 42  1  0  0  0
 16 19  2  0  0  0
 16 43  1  0  0  0
 17 18  2  0  0  0
 17 44  1  0  0  0
 18 22  1  0  0  0
 18 19  1  0  0  0
 19 20  1  0  0  0
 20 21  1  0  0  0
 21 22  2  0  0  0
 21 23  1  0  0  0
 22 45  1  0  0  0
 23 26  2  0  0  0
 23 24  1  0  0  0
 24 46  1  0  0  0
 25 27  2  0  0  0
 25 47  1  0  0  0
 26 27  1  0  0  0
 26 30  1  0  0  0
 27 28  1  0  0  0
 28 29  2  0  0  0
 28 48  1  0  0  0
 29 30  1  0  0  0
 30 49  1  0  0  0
 31 32  1  0  0  0
 31 50  1  0  0  0
 31 51  1  0  0  0
 32 52  1  0  0  0
 32 53  1  0  0  0
 32 54  1  0  0  0
M  CHG  1  32   1
M  END
> <chembl_id>
CHEMBL592030

> <chembl_pref_name>
None

> <s_m_source_file>
sdf/inactives_sanitized.sdf

> <i_m_source_file_index>
97

> <i_lp_mmshare_version>
49012

> <i_m_ct_stereo_status>
1

> <i_f3d_flags>
0

> <s_epik_input>
W05IMl1bQ0gyXVtDSDJdW0NIMl1uMVtjSF1jKGMoYzEyKW5jKFtOSDJdKW5bY0hdMiktYyhbY0hdYyhjMzQpW2NIXW5bbkhdNClbY0hdYzMtYyhbY0hdNSlzYyhjNTYpW2NIXVtjSF1bY0hdW2NIXTY=

> <s_epik_cmdline>
J2VwaWtfcHl0aG9uJywgJy1waHQnLCAnMC41JywgJy1waCcsICc3LjUnLCAnLW50JywgJy1tYScsICcyMDAnLCAnLWltYWUnLCAnPGluZmlsZS5tYWU+JywgJy1vbWFlJywgJzxvdXRmaWxlLm1hZT4n

> <r_lp_tautomer_probability>
1

> <r_epik_Ionization_Penalty>
  0.0046

> <r_epik_Ionization_Penalty_Charging>
  0.0045

> <r_epik_Ionization_Penalty_Neutral>
  0.0000

> <r_epik_State_Penalty>
 -0.0000

> <r_epik_Charging_Adjusted_Penalty>
0.00454190447656448

> <i_epik_Tot_Q>
1

> <i_epik_Tot_abs_Q>
1

> <s_lp_Force_Field>
OPLS3e

> <r_lp_Energy>
32.691932

> <b_lp_Chiralities_Consistent>
1

> <s_lp_Variant>
sdf/inactives_sanitized.sdf:97-1

$$$$
sdf/inactives_sanitized.sdf:98
                    3D
 Schrodinger Suite 2020-1.
 59 64  0  0  1  0            999 V2000
    2.7655   -0.8492    0.2298 S   0  0  0  0  0  0
   -2.2810   -6.8292    2.0429 S   0  0  0  0  0  0
   -0.4300   -2.8067    3.2719 O   0  0  0  0  0  0
    5.3505    2.2207   -1.9824 O   0  0  0  0  0  0
    4.0567    3.6868   -0.9255 O   0  5  0  0  0  0
   10.3662   -1.8788   -0.5133 O   0  0  0  0  0  0
    0.4376    0.5162    0.5465 N   0  0  0  0  0  0
    2.3649    1.6218   -0.3239 N   0  0  0  0  0  0
   -2.0275   -4.1928    2.3924 N   0  0  0  0  0  0
   -0.5349   -5.6638    3.5907 N   0  0  0  0  0  0
    1.7563    0.5649    0.1561 C   0  0  0  0  0  0
    4.0887    0.0875   -0.4160 C   0  0  0  0  0  0
   -1.6503   -0.6971    1.5008 C   0  0  0  0  0  0
    3.6335    1.4022   -0.6425 C   0  0  0  0  0  0
   -2.2777   -1.8019    2.1336 C   0  0  0  0  0  0
   -2.4535    0.3664    1.0378 C   0  0  0  0  0  0
   -0.1219   -0.6161    1.3091 C   0  0  0  0  0  0
    5.4175   -0.5678   -0.5942 C   0  0  0  0  0  0
   -0.3549    1.7396    0.7256 C   0  0  0  0  0  0
   -1.4846   -2.9814    2.6575 C   0  0  0  0  0  0
   -1.8168    1.5352    0.3069 C   0  0  0  0  0  0
    4.4017    2.5192   -1.2231 C   0  0  0  0  0  0
   -1.5154   -5.4295    2.7558 C   0  0  0  0  0  0
   -3.6706   -1.8043    2.3033 C   0  0  0  0  0  0
   -3.8357    0.3355    1.2347 C   0  0  0  0  0  0
   -1.1601   -7.8337    2.9527 C   0  0  0  0  0  0
   -0.3072   -6.9970    3.7230 C   0  0  0  0  0  0
    5.5177   -1.7875   -1.2677 C   0  0  0  0  0  0
    6.5684    0.0393   -0.0867 C   0  0  0  0  0  0
   -4.4446   -0.7409    1.8622 C   0  0  0  0  0  0
    6.7594   -2.3954   -1.4306 C   0  0  0  0  0  0
    7.8105   -0.5678   -0.2499 C   0  0  0  0  0  0
    7.9123   -1.7921   -0.9223 C   0  0  0  0  0  0
   -1.0355   -9.2293    2.9933 C   0  0  0  0  0  0
    0.6790   -7.5666    4.5430 C   0  0  0  0  0  0
   -0.0472   -9.7716    3.8155 C   0  0  0  0  0  0
    0.7928   -8.9574    4.5751 C   0  0  0  0  0  0
    9.2525   -2.4955   -1.1312 C   0  0  0  0  0  0
   11.1519   -2.3896   -0.7222 H   0  0  0  0  0  0
   -2.8406   -4.2123    1.7947 H   0  0  0  0  0  0
    0.1743   -1.5310    0.7953 H   0  0  0  0  0  0
    0.3789   -0.6342    2.2777 H   0  0  0  0  0  0
   -0.2663    2.1116    1.7473 H   0  0  0  0  0  0
    0.0455    2.5372    0.0988 H   0  0  0  0  0  0
   -1.8624    1.3538   -0.7680 H   0  0  0  0  0  0
   -2.3803    2.4523    0.4838 H   0  0  0  0  0  0
   -4.1688   -2.6287    2.7945 H   0  0  0  0  0  0
   -4.4481    1.1533    0.8836 H   0  0  0  0  0  0
    4.6359   -2.2645   -1.6700 H   0  0  0  0  0  0
    6.5032    0.9837    0.4341 H   0  0  0  0  0  0
   -5.5153   -0.7524    2.0036 H   0  0  0  0  0  0
    6.8237   -3.3377   -1.9550 H   0  0  0  0  0  0
    8.6858   -0.0768    0.1487 H   0  0  0  0  0  0
   -1.6820   -9.8679    2.4092 H   0  0  0  0  0  0
    1.3366   -6.9490    5.1372 H   0  0  0  0  0  0
    0.0702  -10.8443    3.8658 H   0  0  0  0  0  0
    1.5465   -9.4126    5.2010 H   0  0  0  0  0  0
    9.4407   -2.5768   -2.2025 H   0  0  0  0  0  0
    9.1714   -3.5131   -0.7469 H   0  0  0  0  0  0
  1 11  1  0  0  0
  1 12  1  0  0  0
  2 23  1  0  0  0
  2 26  1  0  0  0
  3 20  2  0  0  0
  4 22  2  0  0  0
  5 22  1  0  0  0
  6 38  1  0  0  0
  6 39  1  0  0  0
  7 11  1  0  0  0
  7 17  1  0  0  0
  7 19  1  0  0  0
  8 11  2  0  0  0
  8 14  1  0  0  0
  9 20  1  0  0  0
  9 23  1  0  0  0
  9 40  1  0  0  0
 10 23  2  0  0  0
 10 27  1  0  0  0
 12 14  2  0  0  0
 12 18  1  0  0  0
 13 15  2  0  0  0
 13 16  1  0  0  0
 13 17  1  0  0  0
 14 22  1  0  0  0
 15 20  1  0  0  0
 15 24  1  0  0  0
 16 21  1  0  0  0
 16 25  2  0  0  0
 17 41  1  0  0  0
 17 42  1  0  0  0
 18 28  2  0  0  0
 18 29  1  0  0  0
 19 21  1  0  0  0
 19 43  1  0  0  0
 19 44  1  0  0  0
 21 45  1  0  0  0
 21 46  1  0  0  0
 24 30  2  0  0  0
 24 47  1  0  0  0
 25 30  1  0  0  0
 25 48  1  0  0  0
 26 27  2  0  0  0
 26 34  1  0  0  0
 27 35  1  0  0  0
 28 31  1  0  0  0
 28 49  1  0  0  0
 29 32  2  0  0  0
 29 50  1  0  0  0
 30 51  1  0  0  0
 31 33  2  0  0  0
 31 52  1  0  0  0
 32 33  1  0  0  0
 32 53  1  0  0  0
 33 38  1  0  0  0
 34 36  2  0  0  0
 34 54  1  0  0  0
 35 37  2  0  0  0
 35 55  1  0  0  0
 36 37  1  0  0  0
 36 56  1  0  0  0
 37 57  1  0  0  0
 38 58  1  0  0  0
 38 59  1  0  0  0
M  CHG  1   5  -1
M  END
> <chembl_id>
CHEMBL1983980

> <chembl_pref_name>
None

> <s_m_source_file>
sdf/inactives_sanitized.sdf

> <i_m_source_file_index>
98

> <i_lp_mmshare_version>
49012

> <i_m_ct_stereo_status>
1

> <i_f3d_flags>
0

> <s_epik_input>
W09IXVtDSDJdYyhbY0hdW2NIXTEpW2NIXVtjSF1jMS1jKGMobjIpQyg9TylbT0hdKXNjMk4oW0NIMl0zKVtDSDJdW0NIMl1jKGMzNClbY0hdW2NIXVtjSF1jNEMoPU8pW05IXWMoczUpbmMoYzU2KVtjSF1bY0hdW2NIXVtjSF02

> <s_epik_cmdline>
J2VwaWtfcHl0aG9uJywgJy1waHQnLCAnMC41JywgJy1waCcsICc3LjUnLCAnLW50JywgJy1tYScsICcyMDAnLCAnLWltYWUnLCAnPGluZmlsZS5tYWU+JywgJy1vbWFlJywgJzxvdXRmaWxlLm1hZT4n

> <r_lp_tautomer_probability>
1

> <r_epik_Ionization_Penalty>
  0.0024

> <r_epik_Ionization_Penalty_Charging>
  0.0004

> <r_epik_Ionization_Penalty_Neutral>
  0.0020

> <r_epik_State_Penalty>
 -0.0000

> <r_epik_Charging_Adjusted_Penalty>
0.000411620805443261

> <i_epik_Tot_Q>
-1

> <i_epik_Tot_abs_Q>
1

> <s_lp_Force_Field>
OPLS3e

> <r_lp_Energy>
60.726609

> <b_lp_Chiralities_Consistent>
1

> <s_lp_Variant>
sdf/inactives_sanitized.sdf:98-1

$$$$
sdf/inactives_sanitized.sdf:99
                    3D
 Schrodinger Suite 2020-1.
 66 70  0  0  1  0            999 V2000
  -11.2641   -2.1719   -1.2478 S   0  0  0  0  0  0
   -3.5155   -4.1070   -2.0960 O   0  0  0  0  0  0
    5.6576   -0.1412    1.1140 O   0  0  0  0  0  0
    4.7609   -2.0015   -0.6399 O   0  0  0  0  0  0
    4.0525    1.7942    2.1268 O   0  0  0  0  0  0
  -11.8752   -1.1197   -0.4288 O   0  0  0  0  0  0
  -11.9962   -2.7530   -2.3781 O   0  0  0  0  0  0
   -3.8218    0.2050   -1.7397 N   0  0  0  0  0  0
   -2.5099   -2.3777   -1.1450 N   0  0  0  0  0  0
   -9.7551   -1.5065   -1.8995 N   0  0  0  0  0  0
   -4.8511   -0.6428   -2.1515 C   0  0  0  0  0  0
   -4.7332   -2.0493   -2.2485 C   0  0  0  0  0  0
   -1.8806   -1.1350   -1.0374 C   0  0  0  0  0  0
   -2.4946    0.0997   -1.3266 C   0  0  0  0  0  0
    0.2183    0.0245   -0.5025 C   0  0  0  0  0  0
   -3.5351   -2.9012   -1.8408 C   0  0  0  0  0  0
   -7.1547   -0.7785   -2.9987 C   0  0  0  0  0  0
    1.6466   -0.0226   -0.0747 C   0  0  0  0  0  0
   -0.5349   -1.1450   -0.6448 C   0  0  0  0  0  0
   -6.0638   -0.0481   -2.5245 C   0  0  0  0  0  0
   -8.4268   -0.0942   -3.3782 C   0  0  0  0  0  0
   -5.8278   -2.7817   -2.7509 C   0  0  0  0  0  0
   -1.7421    1.2690   -1.1745 C   0  0  0  0  0  0
   -0.4115    1.2389   -0.7728 C   0  0  0  0  0  0
    4.3372   -0.1095    0.7334 C   0  0  0  0  0  0
    3.8595   -1.0585   -0.1792 C   0  0  0  0  0  0
    3.4961    0.8887    1.2407 C   0  0  0  0  0  0
   -7.0127   -2.1582   -3.1213 C   0  0  0  0  0  0
    2.5128   -1.0028   -0.5716 C   0  0  0  0  0  0
    2.1538    0.9155    0.8310 C   0  0  0  0  0  0
   -9.6822   -0.4708   -2.8491 C   0  0  0  0  0  0
   -8.3706    0.9658   -4.2943 C   0  0  0  0  0  0
  -10.8369    0.2115   -3.2620 C   0  0  0  0  0  0
   -9.5238    1.6362   -4.6936 C   0  0  0  0  0  0
  -10.7581    1.2569   -4.1782 C   0  0  0  0  0  0
    5.9075   -0.9195    2.2764 C   0  0  0  0  0  0
    4.3262   -2.9921   -1.5648 C   0  0  0  0  0  0
    3.2414    2.8302    2.6698 C   0  0  0  0  0  0
  -10.6407   -3.5543   -0.1292 C   0  0  0  0  0  0
   -4.1049    1.1720   -1.8048 H   0  0  0  0  0  0
   -1.8861   -3.1193   -0.8626 H   0  0  0  0  0  0
   -8.8900   -1.9503   -1.6290 H   0  0  0  0  0  0
   -0.0633   -2.0943   -0.4308 H   0  0  0  0  0  0
   -6.1623    1.0258   -2.4444 H   0  0  0  0  0  0
   -5.7964   -3.8571   -2.8560 H   0  0  0  0  0  0
   -2.1949    2.2282   -1.3814 H   0  0  0  0  0  0
    0.1298    2.1694   -0.6817 H   0  0  0  0  0  0
   -7.8272   -2.7580   -3.5017 H   0  0  0  0  0  0
    2.1243   -1.7199   -1.2786 H   0  0  0  0  0  0
    1.4844    1.6688    1.2178 H   0  0  0  0  0  0
   -7.4214    1.2714   -4.7108 H   0  0  0  0  0  0
  -11.8103   -0.0511   -2.8767 H   0  0  0  0  0  0
   -9.4598    2.4478   -5.4034 H   0  0  0  0  0  0
  -11.6548    1.7749   -4.4851 H   0  0  0  0  0  0
    6.9727   -0.8956    2.5056 H   0  0  0  0  0  0
    5.6221   -1.9626    2.1298 H   0  0  0  0  0  0
    5.3720   -0.5294    3.1437 H   0  0  0  0  0  0
    5.1630   -3.6453   -1.8112 H   0  0  0  0  0  0
    3.9735   -2.5434   -2.4946 H   0  0  0  0  0  0
    3.5356   -3.6147   -1.1433 H   0  0  0  0  0  0
    3.8425    3.4424    3.3418 H   0  0  0  0  0  0
    2.4094    2.4253    3.2479 H   0  0  0  0  0  0
    2.8513    3.4841    1.8882 H   0  0  0  0  0  0
  -11.4972   -4.0533    0.3232 H   0  0  0  0  0  0
  -10.0069   -3.1249    0.6464 H   0  0  0  0  0  0
  -10.0697   -4.2641   -0.7274 H   0  0  0  0  0  0
  1  6  2  0  0  0
  1  7  2  0  0  0
  1 10  1  0  0  0
  1 39  1  0  0  0
  2 16  2  0  0  0
  3 25  1  0  0  0
  3 36  1  0  0  0
  4 26  1  0  0  0
  4 37  1  0  0  0
  5 27  1  0  0  0
  5 38  1  0  0  0
  8 11  1  0  0  0
  8 14  1  0  0  0
  8 40  1  0  0  0
  9 13  1  0  0  0
  9 16  1  0  0  0
  9 41  1  0  0  0
 10 31  1  0  0  0
 10 42  1  0  0  0
 11 12  2  0  0  0
 11 20  1  0  0  0
 12 16  1  0  0  0
 12 22  1  0  0  0
 13 14  2  0  0  0
 13 19  1  0  0  0
 14 23  1  0  0  0
 15 18  1  0  0  0
 15 19  2  0  0  0
 15 24  1  0  0  0
 17 20  2  0  0  0
 17 21  1  0  0  0
 17 28  1  0  0  0
 18 29  2  0  0  0
 18 30  1  0  0  0
 19 43  1  0  0  0
 20 44  1  0  0  0
 21 31  2  0  0  0
 21 32  1  0  0  0
 22 28  2  0  0  0
 22 45  1  0  0  0
 23 24  2  0  0  0
 23 46  1  0  0  0
 24 47  1  0  0  0
 25 26  2  0  0  0
 25 27  1  0  0  0
 26 29  1  0  0  0
 27 30  2  0  0  0
 28 48  1  0  0  0
 29 49  1  0  0  0
 30 50  1  0  0  0
 31 33  1  0  0  0
 32 34  2  0  0  0
 32 51  1  0  0  0
 33 35  2  0  0  0
 33 52  1  0  0  0
 34 35  1  0  0  0
 34 53  1  0  0  0
 35 54  1  0  0  0
 36 55  1  0  0  0
 36 56  1  0  0  0
 36 57  1  0  0  0
 37 58  1  0  0  0
 37 59  1  0  0  0
 37 60  1  0  0  0
 38 61  1  0  0  0
 38 62  1  0  0  0
 38 63  1  0  0  0
 39 64  1  0  0  0
 39 65  1  0  0  0
 39 66  1  0  0  0
M  END
> <chembl_id>
CHEMBL1984038

> <chembl_pref_name>
None

> <s_m_source_file>
sdf/inactives_sanitized.sdf

> <i_m_source_file_index>
99

> <i_lp_mmshare_version>
49012

> <i_m_ct_stereo_status>
1

> <i_f3d_flags>
0

> <s_epik_input>
W2NIXTFbY0hdW2NIXVtjSF1jKFtOSF1TKD1PKSg9TylbQ0gzXSljMS1jKFtjSF0yKVtjSF1bY0hdYyhjMjMpQyg9TylbTkhdYzRjKFtOSF0zKVtjSF1bY0hdYyhbY0hdNCktYzVbY0hdYyhPW0NIM10pYyhPW0NIM10pYyhbY0hdNSlPW0NIM10=

> <s_epik_cmdline>
J2VwaWtfcHl0aG9uJywgJy1waHQnLCAnMC41JywgJy1waCcsICc3LjUnLCAnLW50JywgJy1tYScsICcyMDAnLCAnLWltYWUnLCAnPGluZmlsZS5tYWU+JywgJy1vbWFlJywgJzxvdXRmaWxlLm1hZT4n

> <r_lp_tautomer_probability>
1

> <r_epik_Ionization_Penalty>
  0.0663

> <r_epik_Ionization_Penalty_Charging>
  0.0000

> <r_epik_Ionization_Penalty_Neutral>
  0.0663

> <r_epik_State_Penalty>
  0.0579

> <r_epik_Charging_Adjusted_Penalty>
0.0578544785857171

> <i_epik_Tot_Q>
0

> <i_epik_Tot_abs_Q>
0

> <s_lp_Force_Field>
OPLS3e

> <r_lp_Energy>
76.757749

> <b_lp_Chiralities_Consistent>
1

> <s_lp_Variant>
sdf/inactives_sanitized.sdf:99-1

$$$$
sdf/inactives_sanitized.sdf:100
                    3D
 Schrodinger Suite 2020-1.
 74 79  0  0  1  0            999 V2000
   -6.6137    4.1648   -1.1008 C   0  0  0  0  0  0
   -5.2018    4.7340   -0.8778 C   0  0  0  0  0  0
   -4.5053    4.2796    0.4253 C   0  0  0  0  0  0
   -4.1972    2.7751    0.4831 C   0  0  0  0  0  0
   -5.1100    1.9862    0.7272 O   0  0  0  0  0  0
   -2.9053    2.4341    0.2843 N   0  0  0  0  0  0
   -2.3064    1.1596    0.2534 C   0  0  0  0  0  0
   -3.0065   -0.0550    0.2022 C   0  0  0  0  0  0
   -2.3095   -1.2588    0.1581 C   0  0  0  0  0  0
   -0.9166   -1.2630    0.1575 C   0  0  0  0  0  0
   -0.1799   -0.0669    0.2005 C   0  0  0  0  0  0
   -0.9079    1.1365    0.2475 C   0  0  0  0  0  0
    1.3250   -0.0726    0.1925 C   0  0  0  0  0  0
    1.9500   -1.2496   -0.0756 N   0  0  0  0  0  0
    3.3061   -1.2624   -0.0952 C   0  0  0  0  0  0
    3.9722   -2.4693   -0.3916 N   0  0  0  0  0  0
    3.5774   -3.7988   -0.6358 C   0  0  0  0  0  0
    2.2658   -4.2726   -0.4817 C   0  0  0  0  0  0
    1.9142   -5.6008   -0.7321 C   0  0  0  0  0  0
    2.9367   -6.4570   -1.1459 C   0  0  0  0  0  0
    2.9545   -7.7983   -1.4747 N   0  0  0  0  0  0
    4.1852   -8.2162   -1.8230 N   0  0  0  0  0  0
    4.9781   -7.1800   -1.7296 C   0  0  0  0  0  0
    4.2704   -6.0161   -1.3052 C   0  0  0  0  0  0
    4.5880   -4.6759   -1.0431 C   0  0  0  0  0  0
    4.0685   -0.0813    0.1563 C   0  0  0  0  0  0
    5.4886   -0.0072    0.1503 C   0  0  0  0  0  0
    6.1490    1.1931    0.4103 C   0  0  0  0  0  0
    7.5290    1.1501    0.3773 O   0  0  0  0  0  0
    8.2794    2.3169    0.7018 C   0  0  0  0  0  0
    9.7907    2.0231    0.6622 C   0  0  0  0  0  0
   10.1886    0.9195    1.6709 N   0  3  0  0  0  0
    9.7458   -0.5150    1.3031 C   0  0  0  0  0  0
   10.8488   -1.4432    1.8317 C   0  0  0  0  0  0
   11.8845   -0.5523    2.5102 C   0  0  0  0  0  0
   11.7112    0.8105    1.8532 C   0  0  0  0  0  0
    5.3986    2.3458    0.6804 C   0  0  0  0  0  0
    4.0069    2.3116    0.6932 C   0  0  0  0  0  0
    3.3216    1.1033    0.4319 C   0  0  0  0  0  0
    1.9604    1.1033    0.4477 N   0  0  0  0  0  0
   -7.0708    4.6008   -1.9895 H   0  0  0  0  0  0
   -7.2656    4.3816   -0.2540 H   0  0  0  0  0  0
   -6.5958    3.0843   -1.2432 H   0  0  0  0  0  0
   -4.5730    4.4963   -1.7376 H   0  0  0  0  0  0
   -5.2734    5.8223   -0.8641 H   0  0  0  0  0  0
   -3.5768    4.8427    0.5373 H   0  0  0  0  0  0
   -5.1132    4.5507    1.2897 H   0  0  0  0  0  0
   -2.2573    3.1987    0.1635 H   0  0  0  0  0  0
   -4.0834   -0.0989    0.1827 H   0  0  0  0  0  0
   -2.8505   -2.1928    0.1195 H   0  0  0  0  0  0
   -0.4151   -2.2186    0.1238 H   0  0  0  0  0  0
   -0.3791    2.0790    0.2766 H   0  0  0  0  0  0
    4.9725   -2.3502   -0.4522 H   0  0  0  0  0  0
    1.4734   -3.6243   -0.1498 H   0  0  0  0  0  0
    0.8971   -5.9419   -0.6064 H   0  0  0  0  0  0
    2.1787   -8.4447   -1.4755 H   0  0  0  0  0  0
    6.0294   -7.2659   -1.9616 H   0  0  0  0  0  0
    5.6046   -4.3283   -1.1619 H   0  0  0  0  0  0
    6.0678   -0.8952   -0.0575 H   0  0  0  0  0  0
    8.0528    3.1132   -0.0092 H   0  0  0  0  0  0
    8.0077    2.6764    1.6962 H   0  0  0  0  0  0
   10.1364    1.6931   -0.3188 H   0  0  0  0  0  0
   10.3625    2.9027    0.9621 H   0  0  0  0  0  0
    8.7725   -0.6752    1.7688 H   0  0  0  0  0  0
    9.6736   -0.5722    0.2156 H   0  0  0  0  0  0
   10.4499   -2.1855    2.5245 H   0  0  0  0  0  0
   11.3004   -1.9887    1.0016 H   0  0  0  0  0  0
   11.6868   -0.4779    3.5807 H   0  0  0  0  0  0
   12.8973   -0.9384    2.3876 H   0  0  0  0  0  0
   12.0502    1.6639    2.4419 H   0  0  0  0  0  0
   12.1523    0.8624    0.8555 H   0  0  0  0  0  0
    5.8818    3.2896    0.8822 H   0  0  0  0  0  0
    3.4441    3.2107    0.9015 H   0  0  0  0  0  0
    9.7980    1.1604    2.5713 H   0  0  0  0  0  0
  1  2  1  0  0  0
  1 41  1  0  0  0
  1 42  1  0  0  0
  1 43  1  0  0  0
  2  3  1  0  0  0
  2 44  1  0  0  0
  2 45  1  0  0  0
  3  4  1  0  0  0
  3 46  1  0  0  0
  3 47  1  0  0  0
  4  5  2  0  0  0
  4  6  1  0  0  0
  6  7  1  0  0  0
  6 48  1  0  0  0
  7  8  2  0  0  0
  7 12  1  0  0  0
  8  9  1  0  0  0
  8 49  1  0  0  0
  9 10  2  0  0  0
  9 50  1  0  0  0
 10 11  1  0  0  0
 10 51  1  0  0  0
 11 12  2  0  0  0
 11 13  1  0  0  0
 12 52  1  0  0  0
 13 14  2  0  0  0
 13 40  1  0  0  0
 14 15  1  0  0  0
 15 16  1  0  0  0
 15 26  2  0  0  0
 16 17  1  0  0  0
 16 53  1  0  0  0
 17 18  2  0  0  0
 17 25  1  0  0  0
 18 19  1  0  0  0
 18 54  1  0  0  0
 19 20  2  0  0  0
 19 55  1  0  0  0
 20 21  1  0  0  0
 20 24  1  0  0  0
 21 22  1  0  0  0
 21 56  1  0  0  0
 22 23  2  0  0  0
 23 24  1  0  0  0
 23 57  1  0  0  0
 24 25  2  0  0  0
 25 58  1  0  0  0
 26 27  1  0  0  0
 26 39  1  0  0  0
 27 28  2  0  0  0
 27 59  1  0  0  0
 28 29  1  0  0  0
 28 37  1  0  0  0
 29 30  1  0  0  0
 30 31  1  0  0  0
 30 60  1  0  0  0
 30 61  1  0  0  0
 31 32  1  0  0  0
 31 62  1  0  0  0
 31 63  1  0  0  0
 32 33  1  0  0  0
 32 36  1  0  0  0
 32 74  1  0  0  0
 33 34  1  0  0  0
 33 64  1  0  0  0
 33 65  1  0  0  0
 34 35  1  0  0  0
 34 66  1  0  0  0
 34 67  1  0  0  0
 35 36  1  0  0  0
 35 68  1  0  0  0
 35 69  1  0  0  0
 36 70  1  0  0  0
 36 71  1  0  0  0
 37 38  2  0  0  0
 37 72  1  0  0  0
 38 39  1  0  0  0
 38 73  1  0  0  0
 39 40  2  0  0  0
M  CHG  1  32   1
M  END
> <chembl_id>
CHEMBL1968705

> <chembl_pref_name>
None

> <s_m_source_file>
sdf/inactives_sanitized.sdf

> <i_m_source_file_index>
100

> <i_lp_mmshare_version>
49012

> <i_m_ct_stereo_status>
1

> <i_f3d_flags>
0

> <s_epik_input>
W0NIM11bQ0gyXVtDSDJdQyg9TylbTkhdYzFbY0hdW2NIXVtjSF1jKFtjSF0xKS1jKG5jMltOSF1jKFtjSF1bY0hdMylbY0hdYyhjMzQpW2NIXW5bbkhdNCluYyhjMjUpW2NIXVtjSF1jKFtjSF01KU9bQ0gyXVtDSDJdTjZbQ0gyXVtDSDJdW0NIMl1bQ0gyXTY=

> <s_epik_cmdline>
J2VwaWtfcHl0aG9uJywgJy1waHQnLCAnMC41JywgJy1waCcsICc3LjUnLCAnLW50JywgJy1tYScsICcyMDAnLCAnLWltYWUnLCAnPGluZmlsZS5tYWU+JywgJy1vbWFlJywgJzxvdXRmaWxlLm1hZT4n

> <r_lp_tautomer_probability>
0.983149239377218

> <r_epik_Ionization_Penalty>
  0.0259

> <r_epik_Ionization_Penalty_Charging>
  0.0258

> <r_epik_Ionization_Penalty_Neutral>
  0.0001

> <r_epik_State_Penalty>
  0.0210

> <r_epik_Charging_Adjusted_Penalty>
0.0468688279753505

> <i_epik_Tot_Q>
1

> <i_epik_Tot_abs_Q>
1

> <s_lp_Force_Field>
OPLS3e

> <r_lp_Energy>
68.235673

> <b_lp_Chiralities_Consistent>
1

> <s_lp_Variant>
sdf/inactives_sanitized.sdf:100-1

$$$$
sdf/inactives_sanitized.sdf:101
                    3D
 Schrodinger Suite 2020-1.
 36 39  0  0  1  0            999 V2000
   -2.1920   -4.5275   -3.9899 S   0  0  0  0  0  0
    1.9740   -1.3548    0.0310 O   0  0  0  0  0  0
   -6.2985   -2.4025   -2.3848 N   0  0  0  0  0  0
   -5.9772   -3.3637   -3.2635 N   0  0  0  0  0  0
   -4.1402   -2.4866   -2.3430 C   0  0  0  0  0  0
   -5.2040   -1.8362   -1.7946 C   0  0  0  0  0  0
   -4.7902   -0.8178   -0.8223 C   0  0  0  0  0  0
   -3.3886   -0.8706   -0.7998 C   0  0  0  0  0  0
   -4.6575   -3.4293   -3.2480 C   0  0  0  0  0  0
   -2.8650   -1.9378   -1.7641 C   0  0  0  0  0  0
   -2.6853    0.0015    0.0444 C   0  0  0  0  0  0
   -3.9273   -4.3766   -4.0883 C   0  0  0  0  0  0
   -5.4934    0.0789   -0.0207 C   0  0  0  0  0  0
   -3.3912    0.9035    0.8503 C   0  0  0  0  0  0
   -4.7869    0.9405    0.8179 C   0  0  0  0  0  0
   -4.4386   -5.2623   -5.0388 C   0  0  0  0  0  0
   -1.2292   -0.0091    0.0956 C   0  0  0  0  0  0
   -2.1843   -5.7590   -5.2082 C   0  0  0  0  0  0
   -3.4604   -6.0389   -5.6675 C   0  0  0  0  0  0
   -0.0080   -0.0218    0.1187 C   0  0  0  0  0  0
    1.4621   -0.0341    0.1294 C   0  0  0  0  0  0
    3.3922   -1.4116    0.0522 C   0  0  0  0  0  0
   -7.2560   -2.1420   -2.1981 H   0  0  0  0  0  0
   -2.2888   -2.7041   -1.2445 H   0  0  0  0  0  0
   -2.2179   -1.5090   -2.5299 H   0  0  0  0  0  0
   -6.5726    0.1160   -0.0403 H   0  0  0  0  0  0
   -2.8654    1.5833    1.5066 H   0  0  0  0  0  0
   -5.3211    1.6405    1.4434 H   0  0  0  0  0  0
   -5.4910   -5.3435   -5.2690 H   0  0  0  0  0  0
   -1.2549   -6.2109   -5.5218 H   0  0  0  0  0  0
   -3.6765   -6.7758   -6.4270 H   0  0  0  0  0  0
    1.7894    0.4411    1.0556 H   0  0  0  0  0  0
    1.8047    0.5766   -0.7076 H   0  0  0  0  0  0
    3.7164   -2.4490   -0.0298 H   0  0  0  0  0  0
    3.7925   -1.0096    0.9844 H   0  0  0  0  0  0
    3.8262   -0.8593   -0.7829 H   0  0  0  0  0  0
  1 12  1  0  0  0
  1 18  1  0  0  0
  2 21  1  0  0  0
  2 22  1  0  0  0
  3  4  1  0  0  0
  3  6  1  0  0  0
  3 23  1  0  0  0
  4  9  2  0  0  0
  5  6  2  0  0  0
  5  9  1  0  0  0
  5 10  1  0  0  0
  6  7  1  0  0  0
  7  8  2  0  0  0
  7 13  1  0  0  0
  8 10  1  0  0  0
  8 11  1  0  0  0
  9 12  1  0  0  0
 10 24  1  0  0  0
 10 25  1  0  0  0
 11 14  2  0  0  0
 11 17  1  0  0  0
 12 16  2  0  0  0
 13 15  2  0  0  0
 13 26  1  0  0  0
 14 15  1  0  0  0
 14 27  1  0  0  0
 15 28  1  0  0  0
 16 19  1  0  0  0
 16 29  1  0  0  0
 17 20  3  0  0  0
 18 19  2  0  0  0
 18 30  1  0  0  0
 19 31  1  0  0  0
 20 21  1  0  0  0
 21 32  1  0  0  0
 21 33  1  0  0  0
 22 34  1  0  0  0
 22 35  1  0  0  0
 22 36  1  0  0  0
M  END
> <chembl_id>
CHEMBL1985206

> <chembl_pref_name>
None

> <s_m_source_file>
sdf/inactives_sanitized.sdf

> <i_m_source_file_index>
101

> <i_lp_mmshare_version>
49012

> <i_m_ct_stereo_status>
1

> <i_f3d_flags>
0

> <s_epik_input>
W2NIXTFbY0hdW2NIXXNjMS1jMm5bbkhdYyhjMjMpYzRjKFtDSDJdMyljKFtjSF1bY0hdW2NIXTQpQyNDW0NIMl1PW0NIM10=

> <s_epik_cmdline>
J2VwaWtfcHl0aG9uJywgJy1waHQnLCAnMC41JywgJy1waCcsICc3LjUnLCAnLW50JywgJy1tYScsICcyMDAnLCAnLWltYWUnLCAnPGluZmlsZS5tYWU+JywgJy1vbWFlJywgJzxvdXRmaWxlLm1hZT4n

> <r_lp_tautomer_probability>
1

> <r_epik_Ionization_Penalty>
  0.0000

> <r_epik_Ionization_Penalty_Charging>
  0.0000

> <r_epik_Ionization_Penalty_Neutral>
  0.0000

> <r_epik_State_Penalty>
 -0.0000

> <r_epik_Charging_Adjusted_Penalty>
0

> <i_epik_Tot_Q>
0

> <i_epik_Tot_abs_Q>
0

> <s_lp_Force_Field>
OPLS3e

> <r_lp_Energy>
13.430475

> <b_lp_Chiralities_Consistent>
1

> <s_lp_Variant>
sdf/inactives_sanitized.sdf:101-1

$$$$
sdf/inactives_sanitized.sdf:102
                    3D
 Schrodinger Suite 2020-1.
 50 52  0  0  1  0            999 V2000
   -5.9634    1.5836    0.4357 C   0  0  0  0  0  0
   -6.7553    1.5486    1.7642 C   0  0  0  0  0  0
   -7.8080    2.6732    1.7602 C   0  0  0  0  0  0
   -8.7253    2.5087    0.5323 N   0  3  0  0  0  0
   -7.9591    2.4891   -0.8048 C   0  0  0  0  0  0
   -6.9064    1.3652   -0.7710 C   0  0  0  0  0  0
   -4.9003    0.4623    0.4525 C   0  0  0  0  0  0
   -3.6123    0.8630    0.3517 N   0  0  0  0  0  0
   -2.4889    0.0476    0.3407 C   0  0  0  0  0  0
   -2.4458   -1.2663    0.3326 N   0  0  0  0  0  0
   -1.2041   -1.7095    0.3154 C   0  0  0  0  0  0
   -0.1988   -0.7462    0.3068 C   0  0  0  0  0  0
   -0.9417    0.8281    0.3265 S   0  0  0  0  0  0
    1.5399   -0.9902    0.2941 S   0  0  0  0  0  0
    1.8272   -0.5669    2.0360 C   0  0  0  0  0  0
    3.2620   -0.7928    2.4497 C   0  0  0  0  0  0
    4.1653    0.1834    2.1773 O   0  0  0  0  0  0
    5.3466   -0.3300    2.6015 C   0  0  0  0  0  0
    5.0615   -1.5996    3.0872 C   0  0  0  0  0  0
    3.7764   -1.8794    2.9762 N   0  0  0  0  0  0
    6.5964    0.5329    2.4549 C   0  0  0  0  0  0
    7.8365   -0.2341    2.9678 C   0  0  0  0  0  0
    6.4272    1.8282    3.2791 C   0  0  0  0  0  0
    6.8044    0.8928    0.9670 C   0  0  0  0  0  0
   -5.2593   -0.7137    0.5559 O   0  0  0  0  0  0
   -5.4251    2.5294    0.3349 H   0  0  0  0  0  0
   -7.3089    0.6151    1.8870 H   0  0  0  0  0  0
   -6.1074    1.7427    2.6211 H   0  0  0  0  0  0
   -8.4623    2.6387    2.6322 H   0  0  0  0  0  0
   -7.3662    3.6678    1.6805 H   0  0  0  0  0  0
   -9.2443    1.6466    0.6245 H   0  0  0  0  0  0
   -8.7106    2.3378   -1.5804 H   0  0  0  0  0  0
   -7.5175    3.4802   -0.9193 H   0  0  0  0  0  0
   -6.3657    1.4275   -1.7173 H   0  0  0  0  0  0
   -7.4640    0.4292   -0.6913 H   0  0  0  0  0  0
   -3.4340    1.8555    0.3020 H   0  0  0  0  0  0
   -1.0329   -2.7758    0.3096 H   0  0  0  0  0  0
    1.5620    0.4819    2.1721 H   0  0  0  0  0  0
    1.1470   -1.1411    2.6665 H   0  0  0  0  0  0
    5.7680   -2.3024    3.5035 H   0  0  0  0  0  0
    8.7460    0.3616    2.8764 H   0  0  0  0  0  0
    7.9941   -1.1581    2.4094 H   0  0  0  0  0  0
    7.7307   -0.5092    4.0184 H   0  0  0  0  0  0
    6.2612    1.6096    4.3351 H   0  0  0  0  0  0
    5.5729    2.4142    2.9372 H   0  0  0  0  0  0
    7.3088    2.4672    3.2114 H   0  0  0  0  0  0
    7.6990    1.4998    0.8201 H   0  0  0  0  0  0
    5.9599    1.4559    0.5669 H   0  0  0  0  0  0
    6.9107   -0.0019    0.3515 H   0  0  0  0  0  0
   -9.4027    3.2584    0.5179 H   0  0  0  0  0  0
  1  7  1  0  0  0
  1  2  1  0  0  0
  1  6  1  0  0  0
  1 26  1  0  0  0
  2  3  1  0  0  0
  2 27  1  0  0  0
  2 28  1  0  0  0
  3  4  1  0  0  0
  3 29  1  0  0  0
  3 30  1  0  0  0
  4  5  1  0  0  0
  4 31  1  0  0  0
  4 50  1  0  0  0
  5  6  1  0  0  0
  5 32  1  0  0  0
  5 33  1  0  0  0
  6 34  1  0  0  0
  6 35  1  0  0  0
  7  8  1  0  0  0
  7 25  2  0  0  0
  8  9  1  0  0  0
  8 36  1  0  0  0
  9 13  1  0  0  0
  9 10  2  0  0  0
 10 11  1  0  0  0
 11 12  2  0  0  0
 11 37  1  0  0  0
 12 14  1  0  0  0
 12 13  1  0  0  0
 14 15  1  0  0  0
 15 16  1  0  0  0
 15 38  1  0  0  0
 15 39  1  0  0  0
 16 17  1  0  0  0
 16 20  2  0  0  0
 17 18  1  0  0  0
 18 19  2  0  0  0
 18 21  1  0  0  0
 19 20  1  0  0  0
 19 40  1  0  0  0
 21 22  1  0  0  0
 21 23  1  0  0  0
 21 24  1  0  0  0
 22 41  1  0  0  0
 22 42  1  0  0  0
 22 43  1  0  0  0
 23 44  1  0  0  0
 23 45  1  0  0  0
 23 46  1  0  0  0
 24 47  1  0  0  0
 24 48  1  0  0  0
 24 49  1  0  0  0
M  CHG  1   4   1
M  END
> <chembl_id>
CHEMBL296468

> <chembl_pref_name>
BMS-387032

> <s_m_source_file>
sdf/inactives_sanitized.sdf

> <i_m_source_file_index>
102

> <i_lp_mmshare_version>
49012

> <i_m_ct_stereo_status>
1

> <i_f3d_flags>
0

> <s_epik_input>
W0NIMl0xW0NIMl1bTkhdW0NIMl1bQ0gyXVtDSF0xQyg9TylbTkhdYzJuW2NIXWMoczIpU1tDSDJdYzNvYyhbY0hdbjMpQyhbQ0gzXSkoW0NIM10pW0NIM10=

> <s_epik_cmdline>
J2VwaWtfcHl0aG9uJywgJy1waHQnLCAnMC41JywgJy1waCcsICc3LjUnLCAnLW50JywgJy1tYScsICcyMDAnLCAnLWltYWUnLCAnPGluZmlsZS5tYWU+JywgJy1vbWFlJywgJzxvdXRmaWxlLm1hZT4n

> <r_lp_tautomer_probability>
1

> <r_epik_Ionization_Penalty>
  0.0091

> <r_epik_Ionization_Penalty_Charging>
  0.0060

> <r_epik_Ionization_Penalty_Neutral>
  0.0031

> <r_epik_State_Penalty>
 -0.0000

> <r_epik_Charging_Adjusted_Penalty>
0.00601246565837504

> <i_epik_Tot_Q>
1

> <i_epik_Tot_abs_Q>
1

> <s_lp_Force_Field>
OPLS3e

> <r_lp_Energy>
31.415558

> <b_lp_Chiralities_Consistent>
1

> <s_lp_Variant>
sdf/inactives_sanitized.sdf:102-1

$$$$
sdf/inactives_sanitized.sdf:103
                    3D
 Schrodinger Suite 2020-1.
 69 73  0  0  1  0            999 V2000
   -4.4526   -0.2664    2.7112 C   0  0  0  0  0  0
   -5.9587   -0.5255    2.9268 C   0  0  0  0  0  0
   -6.4041   -1.5608    2.0581 O   0  0  0  0  0  0
   -6.2150   -1.2324    0.6865 C   0  0  0  0  0  0
   -4.7184   -0.9863    0.3977 C   0  0  0  0  0  0
   -4.1466    0.0222    1.3037 N   0  0  0  0  0  0
   -2.7021    0.1988    1.1245 C   0  0  0  0  0  0
   -2.3195    0.7401   -0.2705 C   0  0  0  0  0  0
   -0.8612    1.2163   -0.3551 C   0  0  0  0  0  0
    0.0083    0.1283   -0.0500 O   0  0  0  0  0  0
    1.3783    0.3231   -0.0256 C   0  0  0  0  0  0
    1.9879    1.5539   -0.3117 C   0  0  0  0  0  0
    2.1643   -0.7873    0.3066 C   0  0  0  0  0  0
    1.4918   -1.9679    0.5733 O   0  0  0  0  0  0
    2.2274   -3.1374    0.9161 C   0  0  0  0  0  0
    3.5618   -0.6670    0.3580 C   0  0  0  0  0  0
    4.1995    0.5696    0.0769 C   0  0  0  0  0  0
    3.3921    1.6955   -0.2657 C   0  0  0  0  0  0
    3.9389    2.9113   -0.5511 N   0  0  0  0  0  0
    5.2891    2.9986   -0.4944 C   0  0  0  0  0  0
    6.1521    2.0055   -0.1814 N   0  0  0  0  0  0
    5.6119    0.7941    0.1105 C   0  0  0  0  0  0
    6.4862   -0.2645    0.4258 N   0  0  0  0  0  0
    7.8692   -0.3164    0.6741 C   0  0  0  0  0  0
    8.5275   -1.5217    0.4287 C   0  0  0  0  0  0
    9.8920   -1.6406    0.6762 C   0  0  0  0  0  0
    8.5879    0.7674    1.1904 C   0  0  0  0  0  0
    9.9528    0.6522    1.4396 C   0  0  0  0  0  0
   10.6145   -0.5596    1.1859 C   0  0  0  0  0  0
   11.9877   -0.7900    1.4009 N   0  0  0  0  0  0
   12.9206   -0.0083    1.9937 C   0  0  0  0  0  0
   12.7019    1.1090    2.4649 O   0  0  0  0  0  0
   14.3212   -0.5839    2.0385 C   0  0  0  0  0  0
   15.4193    0.2745    2.1993 C   0  0  0  0  0  0
   16.7146   -0.2336    2.2510 C   0  0  0  0  0  0
   16.9229   -1.6056    2.1458 C   0  0  0  0  0  0
   15.8467   -2.4740    1.9902 C   0  0  0  0  0  0
   14.5508   -1.9668    1.9378 C   0  0  0  0  0  0
   -4.1238    0.5676    3.3330 H   0  0  0  0  0  0
   -3.8788   -1.1340    3.0430 H   0  0  0  0  0  0
   -6.1394   -0.8332    3.9568 H   0  0  0  0  0  0
   -6.5396    0.3850    2.7671 H   0  0  0  0  0  0
   -6.5790   -2.0598    0.0771 H   0  0  0  0  0  0
   -6.8145   -0.3609    0.4159 H   0  0  0  0  0  0
   -4.1672   -1.9227    0.5009 H   0  0  0  0  0  0
   -4.5903   -0.6736   -0.6387 H   0  0  0  0  0  0
   -2.3073    0.8769    1.8834 H   0  0  0  0  0  0
   -2.1961   -0.7533    1.2970 H   0  0  0  0  0  0
   -2.4189   -0.0655   -0.9993 H   0  0  0  0  0  0
   -3.0083    1.5240   -0.5889 H   0  0  0  0  0  0
   -0.6577    1.5856   -1.3618 H   0  0  0  0  0  0
   -0.7048    2.0427    0.3408 H   0  0  0  0  0  0
    1.4015    2.4221   -0.5736 H   0  0  0  0  0  0
    1.5335   -3.9600    1.0883 H   0  0  0  0  0  0
    2.8025   -2.9945    1.8321 H   0  0  0  0  0  0
    2.9003   -3.4369    0.1112 H   0  0  0  0  0  0
    4.1790   -1.5138    0.6154 H   0  0  0  0  0  0
    5.7219    3.9615   -0.7229 H   0  0  0  0  0  0
    6.0238   -1.1566    0.5204 H   0  0  0  0  0  0
    7.9863   -2.3727    0.0399 H   0  0  0  0  0  0
   10.3812   -2.5828    0.4726 H   0  0  0  0  0  0
    8.1023    1.7037    1.4190 H   0  0  0  0  0  0
   10.4603    1.5199    1.8273 H   0  0  0  0  0  0
   12.3106   -1.6891    1.0756 H   0  0  0  0  0  0
   15.2803    1.3434    2.2824 H   0  0  0  0  0  0
   17.5541    0.4349    2.3732 H   0  0  0  0  0  0
   17.9278   -1.9994    2.1870 H   0  0  0  0  0  0
   16.0157   -3.5380    1.9131 H   0  0  0  0  0  0
   13.7335   -2.6644    1.8247 H   0  0  0  0  0  0
  1  2  1  0  0  0
  1  6  1  0  0  0
  1 39  1  0  0  0
  1 40  1  0  0  0
  2  3  1  0  0  0
  2 41  1  0  0  0
  2 42  1  0  0  0
  3  4  1  0  0  0
  4  5  1  0  0  0
  4 43  1  0  0  0
  4 44  1  0  0  0
  5  6  1  0  0  0
  5 45  1  0  0  0
  5 46  1  0  0  0
  6  7  1  0  0  0
  7  8  1  0  0  0
  7 47  1  0  0  0
  7 48  1  0  0  0
  8  9  1  0  0  0
  8 49  1  0  0  0
  8 50  1  0  0  0
  9 10  1  0  0  0
  9 51  1  0  0  0
  9 52  1  0  0  0
 10 11  1  0  0  0
 11 12  2  0  0  0
 11 13  1  0  0  0
 12 18  1  0  0  0
 12 53  1  0  0  0
 13 14  1  0  0  0
 13 16  2  0  0  0
 14 15  1  0  0  0
 15 54  1  0  0  0
 15 55  1  0  0  0
 15 56  1  0  0  0
 16 17  1  0  0  0
 16 57  1  0  0  0
 17 18  2  0  0  0
 17 22  1  0  0  0
 18 19  1  0  0  0
 19 20  2  0  0  0
 20 21  1  0  0  0
 20 58  1  0  0  0
 21 22  2  0  0  0
 22 23  1  0  0  0
 23 24  1  0  0  0
 23 59  1  0  0  0
 24 25  2  0  0  0
 24 27  1  0  0  0
 25 26  1  0  0  0
 25 60  1  0  0  0
 26 29  2  0  0  0
 26 61  1  0  0  0
 27 28  2  0  0  0
 27 62  1  0  0  0
 28 29  1  0  0  0
 28 63  1  0  0  0
 29 30  1  0  0  0
 30 31  1  0  0  0
 30 64  1  0  0  0
 31 32  2  0  0  0
 31 33  1  0  0  0
 33 34  2  0  0  0
 33 38  1  0  0  0
 34 35  1  0  0  0
 34 65  1  0  0  0
 35 36  2  0  0  0
 35 66  1  0  0  0
 36 37  1  0  0  0
 36 67  1  0  0  0
 37 38  2  0  0  0
 37 68  1  0  0  0
 38 69  1  0  0  0
M  END
> <chembl_id>
CHEMBL202721

> <chembl_pref_name>
None

> <s_m_source_file>
sdf/inactives_sanitized.sdf

> <i_m_source_file_index>
103

> <i_lp_mmshare_version>
49012

> <i_m_ct_stereo_status>
1

> <i_f3d_flags>
0

> <s_epik_input>
W0NIMl0xW0NIMl1PW0NIMl1bQ0gyXU4xW0NIMl1bQ0gyXVtDSDJdT2MoYyhbY0hdMilPW0NIM10pW2NIXWMoYzIzKW5bY0hdbmMzW05IXWM0W2NIXVtjSF1jKFtjSF1bY0hdNClbTkhdQyg9TyljNVtjSF1bY0hdW2NIXVtjSF1bY0hdNQ==

> <s_epik_cmdline>
J2VwaWtfcHl0aG9uJywgJy1waHQnLCAnMC41JywgJy1waCcsICc3LjUnLCAnLW50JywgJy1tYScsICcyMDAnLCAnLWltYWUnLCAnPGluZmlsZS5tYWU+JywgJy1vbWFlJywgJzxvdXRmaWxlLm1hZT4n

> <r_lp_tautomer_probability>
0.999978000241998

> <r_epik_Ionization_Penalty>
  0.1614

> <r_epik_Ionization_Penalty_Charging>
  0.0000

> <r_epik_Ionization_Penalty_Neutral>
  0.1614

> <r_epik_State_Penalty>
  0.1502

> <r_epik_Charging_Adjusted_Penalty>
0.150182127675862

> <i_epik_Tot_Q>
0

> <i_epik_Tot_abs_Q>
0

> <s_lp_Force_Field>
OPLS3e

> <r_lp_Energy>
58.906728

> <b_lp_Chiralities_Consistent>
1

> <s_lp_Variant>
sdf/inactives_sanitized.sdf:103-1

$$$$
sdf/inactives_sanitized.sdf:104
                    3D
 Schrodinger Suite 2020-1.
 26 28  0  0  1  0            999 V2000
    0.8981    3.0845   -0.0234 O   0  0  0  0  0  0
   -2.5307    2.5105   -0.0631 N   0  0  0  0  0  0
   -1.3939    3.2997    0.0336 N   0  0  0  0  0  0
   -0.7118    1.2040   -0.0090 C   0  0  0  0  0  0
    0.0232    0.0067   -0.0011 C   0  0  0  0  0  0
   -2.1031    1.1866   -0.0192 C   0  0  0  0  0  0
   -0.2418    2.6241    0.0008 C   0  0  0  0  0  0
    1.5053   -0.0083   -0.0019 C   0  0  0  0  0  0
   -0.6833   -1.2031    0.0182 C   0  0  0  0  0  0
   -2.7969   -0.0215    0.0139 C   0  0  0  0  0  0
   -2.0804   -1.2187    0.0314 C   0  0  0  0  0  0
    2.2074   -0.0082   -1.2108 C   0  0  0  0  0  0
    2.2080   -0.0157    1.2067 C   0  0  0  0  0  0
    3.5999   -0.0155   -1.2122 C   0  0  0  0  0  0
    3.6003   -0.0224    1.2076 C   0  0  0  0  0  0
    4.2903   -0.0222   -0.0024 C   0  0  0  0  0  0
   -3.2154    2.9172    0.5583 H   0  0  0  0  0  0
   -1.5559    4.2904   -0.0763 H   0  0  0  0  0  0
   -0.1460   -2.1405    0.0270 H   0  0  0  0  0  0
   -3.8766   -0.0444    0.0149 H   0  0  0  0  0  0
   -2.6079   -2.1608    0.0512 H   0  0  0  0  0  0
    1.6737    0.0011   -2.1504 H   0  0  0  0  0  0
    1.6744   -0.0117    2.1463 H   0  0  0  0  0  0
    4.1419   -0.0140   -2.1464 H   0  0  0  0  0  0
    4.1423   -0.0257    2.1416 H   0  0  0  0  0  0
    5.3703   -0.0259   -0.0026 H   0  0  0  0  0  0
  1  7  2  0  0  0
  2  3  1  0  0  0
  2  6  1  0  0  0
  2 17  1  0  0  0
  3  7  1  0  0  0
  3 18  1  0  0  0
  4  5  2  0  0  0
  4  6  1  0  0  0
  4  7  1  0  0  0
  5  8  1  0  0  0
  5  9  1  0  0  0
  6 10  2  0  0  0
  8 12  2  0  0  0
  8 13  1  0  0  0
  9 11  2  0  0  0
  9 19  1  0  0  0
 10 11  1  0  0  0
 10 20  1  0  0  0
 11 21  1  0  0  0
 12 14  1  0  0  0
 12 22  1  0  0  0
 13 15  2  0  0  0
 13 23  1  0  0  0
 14 16  2  0  0  0
 14 24  1  0  0  0
 15 16  1  0  0  0
 15 25  1  0  0  0
 16 26  1  0  0  0
M  END
> <chembl_id>
CHEMBL1989834

> <chembl_pref_name>
None

> <s_m_source_file>
sdf/inactives_sanitized.sdf

> <i_m_source_file_index>
104

> <i_lp_mmshare_version>
49012

> <i_m_ct_stereo_status>
1

> <i_f3d_flags>
0

> <s_epik_input>
Tz1jMVtuSF1bbkhdYyhjMTIpW2NIXVtjSF1bY0hdYzItYzNbY0hdW2NIXVtjSF1bY0hdW2NIXTM=

> <s_epik_cmdline>
J2VwaWtfcHl0aG9uJywgJy1waHQnLCAnMC41JywgJy1waCcsICc3LjUnLCAnLW50JywgJy1tYScsICcyMDAnLCAnLWltYWUnLCAnPGluZmlsZS5tYWU+JywgJy1vbWFlJywgJzxvdXRmaWxlLm1hZT4n

> <r_epik_Ionization_Penalty>
  0.4041

> <r_epik_Ionization_Penalty_Charging>
  0.0000

> <r_epik_Ionization_Penalty_Neutral>
  0.4041

> <r_epik_State_Penalty>
  0.4109

> <r_epik_Charging_Adjusted_Penalty>
0.41094125423014

> <i_epik_Tot_Q>
0

> <i_epik_Tot_abs_Q>
0

> <s_lp_Force_Field>
OPLS3e

> <r_lp_Energy>
23.048543

> <b_lp_Chiralities_Consistent>
1

> <s_lp_Variant>
sdf/inactives_sanitized.sdf:104-1

$$$$
sdf/inactives_sanitized.sdf:104
                    3D
 Schrodinger Suite 2020-1.
 25 27  0  0  1  0            999 V2000
    0.8458    3.0488   -0.0000 O   0  0  0  0  0  0
   -2.5021    2.4917    0.0000 N   0  0  0  0  0  0
   -1.4008    3.3750   -0.0000 N   0  5  0  0  0  0
   -0.7301    1.1911   -0.0000 C   0  0  0  0  0  0
    0.0105   -0.0015   -0.0000 C   0  0  0  0  0  0
   -2.1066    1.1703    0.0000 C   0  0  0  0  0  0
   -0.3133    2.6371   -0.0000 C   0  0  0  0  0  0
    1.4919   -0.0093   -0.0000 C   0  0  0  0  0  0
   -0.6991   -1.2120    0.0000 C   0  0  0  0  0  0
   -2.8170   -0.0272    0.0000 C   0  0  0  0  0  0
   -2.0993   -1.2260    0.0000 C   0  0  0  0  0  0
    2.1943   -0.0092   -1.2086 C   0  0  0  0  0  0
    2.1943   -0.0092    1.2086 C   0  0  0  0  0  0
    3.5868   -0.0050   -1.2099 C   0  0  0  0  0  0
    3.5868   -0.0050    1.2099 C   0  0  0  0  0  0
    4.2770   -0.0028    0.0000 C   0  0  0  0  0  0
   -3.4167    2.9199   -0.0000 H   0  0  0  0  0  0
   -0.1630   -2.1502    0.0000 H   0  0  0  0  0  0
   -3.8968   -0.0420    0.0000 H   0  0  0  0  0  0
   -2.6274   -2.1680    0.0000 H   0  0  0  0  0  0
    1.6595   -0.0059   -2.1475 H   0  0  0  0  0  0
    1.6595   -0.0059    2.1475 H   0  0  0  0  0  0
    4.1282   -0.0006   -2.1443 H   0  0  0  0  0  0
    4.1282   -0.0006    2.1443 H   0  0  0  0  0  0
    5.3570    0.0034    0.0000 H   0  0  0  0  0  0
  1  7  2  0  0  0
  2  3  1  0  0  0
  2  6  1  0  0  0
  2 17  1  0  0  0
  3  7  1  0  0  0
  4  5  2  0  0  0
  4  6  1  0  0  0
  4  7  1  0  0  0
  5  8  1  0  0  0
  5  9  1  0  0  0
  6 10  2  0  0  0
  8 12  2  0  0  0
  8 13  1  0  0  0
  9 11  2  0  0  0
  9 18  1  0  0  0
 10 11  1  0  0  0
 10 19  1  0  0  0
 11 20  1  0  0  0
 12 14  1  0  0  0
 12 21  1  0  0  0
 13 15  2  0  0  0
 13 22  1  0  0  0
 14 16  2  0  0  0
 14 23  1  0  0  0
 15 16  1  0  0  0
 15 24  1  0  0  0
 16 25  1  0  0  0
M  CHG  1   3  -1
M  END
> <chembl_id>
CHEMBL1989834

> <chembl_pref_name>
None

> <s_m_source_file>
sdf/inactives_sanitized.sdf

> <i_m_source_file_index>
104

> <i_lp_mmshare_version>
49012

> <i_m_ct_stereo_status>
1

> <i_f3d_flags>
0

> <s_epik_input>
Tz1jMVtuSF1bbkhdYyhjMTIpW2NIXVtjSF1bY0hdYzItYzNbY0hdW2NIXVtjSF1bY0hdW2NIXTM=

> <s_epik_cmdline>
J2VwaWtfcHl0aG9uJywgJy1waHQnLCAnMC41JywgJy1waCcsICc3LjUnLCAnLW50JywgJy1tYScsICcyMDAnLCAnLWltYWUnLCAnPGluZmlsZS5tYWU+JywgJy1vbWFlJywgJzxvdXRmaWxlLm1hZT4n

> <r_epik_Ionization_Penalty>
  0.3921

> <r_epik_Ionization_Penalty_Charging>
  0.0000

> <r_epik_Ionization_Penalty_Neutral>
  0.3921

> <r_epik_State_Penalty>
  0.4838

> <r_epik_Charging_Adjusted_Penalty>
0.483834473232187

> <i_epik_Tot_Q>
-1

> <i_epik_Tot_abs_Q>
1

> <s_lp_Force_Field>
OPLS3e

> <r_lp_Energy>
30.496646

> <b_lp_Chiralities_Consistent>
1

> <s_lp_Variant>
sdf/inactives_sanitized.sdf:104-2

$$$$
sdf/inactives_sanitized.sdf:105
                    3D
 Schrodinger Suite 2020-1.
 24 26  0  0  1  0            999 V2000
    2.5352    1.4494   -0.0000 S   0  0  0  0  0  0
   -3.8922    2.8813    0.0000 O   0  0  0  0  0  0
   -1.6480    3.3675    0.0000 N   0  0  0  0  0  0
   -0.7329    1.2423   -0.0000 C   0  0  0  0  0  0
    0.0390    0.0588   -0.0000 C   0  0  0  0  0  0
   -2.1215    1.1733   -0.0000 C   0  0  0  0  0  0
    1.5503    0.0029   -0.0000 C   0  0  0  0  0  0
   -2.7091    2.5482   -0.0000 C   0  0  0  0  0  0
   -0.3571    2.7017    0.0000 C   0  0  0  0  0  0
   -0.6503   -1.1677   -0.0000 C   0  0  0  0  0  0
   -2.7897   -0.0482   -0.0000 C   0  0  0  0  0  0
   -2.0444   -1.2229   -0.0000 C   0  0  0  0  0  0
    2.3880   -1.1214   -0.0000 C   0  0  0  0  0  0
    4.0021    0.5335   -0.0000 C   0  0  0  0  0  0
    3.7540   -0.8254   -0.0000 C   0  0  0  0  0  0
   -1.7281    4.3739    0.0000 H   0  0  0  0  0  0
    0.2102    2.9976   -0.8833 H   0  0  0  0  0  0
    0.2102    2.9976    0.8833 H   0  0  0  0  0  0
   -0.1183   -2.1062   -0.0000 H   0  0  0  0  0  0
   -3.8689   -0.0998   -0.0000 H   0  0  0  0  0  0
   -2.5462   -2.1794   -0.0000 H   0  0  0  0  0  0
    2.0308   -2.1398   -0.0000 H   0  0  0  0  0  0
    4.9602    1.0318   -0.0000 H   0  0  0  0  0  0
    4.5305   -1.5764   -0.0000 H   0  0  0  0  0  0
  1  7  1  0  0  0
  1 14  1  0  0  0
  2  8  2  0  0  0
  3  8  1  0  0  0
  3  9  1  0  0  0
  3 16  1  0  0  0
  4  5  1  0  0  0
  4  6  2  0  0  0
  4  9  1  0  0  0
  5  7  1  0  0  0
  5 10  2  0  0  0
  6  8  1  0  0  0
  6 11  1  0  0  0
  7 13  2  0  0  0
  9 17  1  0  0  0
  9 18  1  0  0  0
 10 12  1  0  0  0
 10 19  1  0  0  0
 11 12  2  0  0  0
 11 20  1  0  0  0
 12 21  1  0  0  0
 13 15  1  0  0  0
 13 22  1  0  0  0
 14 15  2  0  0  0
 14 23  1  0  0  0
 15 24  1  0  0  0
M  END
> <chembl_id>
CHEMBL1991782

> <chembl_pref_name>
None

> <s_m_source_file>
sdf/inactives_sanitized.sdf

> <i_m_source_file_index>
105

> <i_lp_mmshare_version>
49012

> <i_m_ct_stereo_status>
1

> <i_f3d_flags>
0

> <s_epik_input>
W2NIXTFbY0hdW2NIXXNjMS1jMltjSF1bY0hdW2NIXWMoYzIzKUMoPU8pW05IXVtDSDJdMw==

> <s_epik_cmdline>
J2VwaWtfcHl0aG9uJywgJy1waHQnLCAnMC41JywgJy1waCcsICc3LjUnLCAnLW50JywgJy1tYScsICcyMDAnLCAnLWltYWUnLCAnPGluZmlsZS5tYWU+JywgJy1vbWFlJywgJzxvdXRmaWxlLm1hZT4n

> <r_lp_tautomer_probability>
1

> <r_epik_Ionization_Penalty>
  0.0000

> <r_epik_Ionization_Penalty_Charging>
  0.0000

> <r_epik_Ionization_Penalty_Neutral>
  0.0000

> <r_epik_State_Penalty>
 -0.0000

> <r_epik_Charging_Adjusted_Penalty>
0

> <i_epik_Tot_Q>
0

> <i_epik_Tot_abs_Q>
0

> <s_lp_Force_Field>
OPLS3e

> <r_lp_Energy>
13.410226

> <b_lp_Chiralities_Consistent>
1

> <s_lp_Variant>
sdf/inactives_sanitized.sdf:105-1

$$$$
sdf/inactives_sanitized.sdf:106
                    3D
 Schrodinger Suite 2020-1.
 16 17  0  0  1  0            999 V2000
    3.3095    5.1754    0.0000 Br  0  0  0  0  0  0
    3.4448   -0.7957   -0.0000 N   0  0  0  0  0  0
    2.1383   -1.1305   -0.0000 N   0  0  0  0  0  0
    4.7612    1.2596    0.0000 N   0  0  0  0  0  0
    0.0884    0.0284   -0.0000 N   0  0  0  0  0  0
    2.3127    1.1266   -0.0000 C   0  0  0  0  0  0
    3.6140    0.5733    0.0000 C   0  0  0  0  0  0
    1.4525   -0.0138   -0.0000 C   0  0  0  0  0  0
    2.1956    2.5273    0.0000 C   0  0  0  0  0  0
    3.3774    3.2734    0.0000 C   0  0  0  0  0  0
    4.6094    2.6124    0.0000 C   0  0  0  0  0  0
    4.1582   -1.5105    0.0000 H   0  0  0  0  0  0
   -0.4167    0.9028    0.0000 H   0  0  0  0  0  0
   -0.4646   -0.8168   -0.0000 H   0  0  0  0  0  0
    1.2298    3.0105    0.0000 H   0  0  0  0  0  0
    5.5258    3.1844    0.0000 H   0  0  0  0  0  0
  1 10  1  0  0  0
  2  3  1  0  0  0
  2  7  1  0  0  0
  2 12  1  0  0  0
  3  8  2  0  0  0
  4  7  2  0  0  0
  4 11  1  0  0  0
  5  8  1  0  0  0
  5 13  1  0  0  0
  5 14  1  0  0  0
  6  7  1  0  0  0
  6  8  1  0  0  0
  6  9  2  0  0  0
  9 10  1  0  0  0
  9 15  1  0  0  0
 10 11  2  0  0  0
 11 16  1  0  0  0
M  END
> <chembl_id>
CHEMBL2002105

> <chembl_pref_name>
None

> <s_m_source_file>
sdf/inactives_sanitized.sdf

> <i_m_source_file_index>
106

> <i_lp_mmshare_version>
49012

> <i_m_ct_stereo_status>
1

> <i_f3d_flags>
0

> <s_epik_input>
QnJjKFtjSF0xKVtjSF1uYyhjMTIpW25IXW5jMltOSDJd

> <s_epik_cmdline>
J2VwaWtfcHl0aG9uJywgJy1waHQnLCAnMC41JywgJy1waCcsICc3LjUnLCAnLW50JywgJy1tYScsICcyMDAnLCAnLWltYWUnLCAnPGluZmlsZS5tYWU+JywgJy1vbWFlJywgJzxvdXRmaWxlLm1hZT4n

> <r_lp_tautomer_probability>
1

> <r_epik_Ionization_Penalty>
  0.0006

> <r_epik_Ionization_Penalty_Charging>
  0.0000

> <r_epik_Ionization_Penalty_Neutral>
  0.0006

> <r_epik_State_Penalty>
 -0.0000

> <r_epik_Charging_Adjusted_Penalty>
0

> <i_epik_Tot_Q>
0

> <i_epik_Tot_abs_Q>
0

> <s_lp_Force_Field>
OPLS3e

> <r_lp_Energy>
8.74833

> <b_lp_Chiralities_Consistent>
1

> <s_lp_Variant>
sdf/inactives_sanitized.sdf:106-1

$$$$
sdf/inactives_sanitized.sdf:107
                    3D
 Schrodinger Suite 2020-1.
 28 29  0  0  1  0            999 V2000
    0.0460    0.0000    0.3019 N   0  0  0  0  0  0
    5.6737   -0.0000    0.0398 N   0  0  0  0  0  0
    2.1000    0.0000   -1.1710 C   0  0  0  0  0  0
    3.5362   -0.0000   -1.2182 C   0  0  0  0  0  0
    1.4423    0.0000    0.1088 C   0  0  0  0  0  0
    4.2760   -0.0000    0.0037 C   0  0  0  0  0  0
    2.2161    0.0000    1.2687 C   0  0  0  0  0  0
    1.3889   -0.0000   -2.4078 C   0  0  0  0  0  0
    3.6013   -0.0000    1.2191 C   0  0  0  0  0  0
    4.1808    0.0000   -2.4898 C   0  0  0  0  0  0
    2.0578   -0.0000   -3.6261 C   0  0  0  0  0  0
    3.4434    0.0000   -3.6672 C   0  0  0  0  0  0
   -0.6326   -1.2462   -0.0348 C   0  0  0  0  0  0
   -0.6325    1.2462   -0.0349 C   0  0  0  0  0  0
    6.1481   -0.0000    0.9313 H   0  0  0  0  0  0
    6.1929   -0.0000   -0.8262 H   0  0  0  0  0  0
    1.7372    0.0000    2.2380 H   0  0  0  0  0  0
    0.3112   -0.0000   -2.4187 H   0  0  0  0  0  0
    4.1540   -0.0000    2.1479 H   0  0  0  0  0  0
    5.2592    0.0000   -2.5488 H   0  0  0  0  0  0
    1.4947   -0.0000   -4.5478 H   0  0  0  0  0  0
    3.9518    0.0000   -4.6202 H   0  0  0  0  0  0
   -0.0913   -2.1010    0.3735 H   0  0  0  0  0  0
   -0.7142   -1.3913   -1.1113 H   0  0  0  0  0  0
   -1.6357   -1.2594    0.3924 H   0  0  0  0  0  0
   -0.0912    2.1011    0.3733 H   0  0  0  0  0  0
   -1.6356    1.2595    0.3924 H   0  0  0  0  0  0
   -0.7142    1.3912   -1.1114 H   0  0  0  0  0  0
  1  5  1  0  0  0
  1 13  1  0  0  0
  1 14  1  0  0  0
  2  6  1  0  0  0
  2 15  1  0  0  0
  2 16  1  0  0  0
  3  4  1  0  0  0
  3  5  2  0  0  0
  3  8  1  0  0  0
  4  6  2  0  0  0
  4 10  1  0  0  0
  5  7  1  0  0  0
  6  9  1  0  0  0
  7  9  2  0  0  0
  7 17  1  0  0  0
  8 11  2  0  0  0
  8 18  1  0  0  0
  9 19  1  0  0  0
 10 12  2  0  0  0
 10 20  1  0  0  0
 11 12  1  0  0  0
 11 21  1  0  0  0
 12 22  1  0  0  0
 13 23  1  0  0  0
 13 24  1  0  0  0
 13 25  1  0  0  0
 14 26  1  0  0  0
 14 27  1  0  0  0
 14 28  1  0  0  0
M  END
> <chembl_id>
CHEMBL1998253

> <chembl_pref_name>
None

> <s_m_source_file>
sdf/inactives_sanitized.sdf

> <i_m_source_file_index>
107

> <i_lp_mmshare_version>
49012

> <i_m_ct_stereo_status>
1

> <i_f3d_flags>
0

> <s_epik_input>
W0NIM11OKFtDSDNdKWMxW2NIXVtjSF1jKFtOSDJdKWMoYzEyKVtjSF1bY0hdW2NIXVtjSF0y

> <s_epik_cmdline>
J2VwaWtfcHl0aG9uJywgJy1waHQnLCAnMC41JywgJy1waCcsICc3LjUnLCAnLW50JywgJy1tYScsICcyMDAnLCAnLWltYWUnLCAnPGluZmlsZS5tYWU+JywgJy1vbWFlJywgJzxvdXRmaWxlLm1hZT4n

> <r_epik_Ionization_Penalty>
  0.0128

> <r_epik_Ionization_Penalty_Charging>
  0.0000

> <r_epik_Ionization_Penalty_Neutral>
  0.0128

> <r_epik_State_Penalty>
  0.0048

> <r_epik_Charging_Adjusted_Penalty>
0.004818212362975

> <i_epik_Tot_Q>
0

> <i_epik_Tot_abs_Q>
0

> <s_lp_Force_Field>
OPLS3e

> <r_lp_Energy>
44.415812

> <b_lp_Chiralities_Consistent>
1

> <s_lp_Variant>
sdf/inactives_sanitized.sdf:107-1

$$$$
sdf/inactives_sanitized.sdf:108
                    3D
 Schrodinger Suite 2020-1.
 35 37  0  0  1  0            999 V2000
   -8.5344   -0.1703    1.6309 Cl  0  0  0  0  0  0
    4.2741    3.2013    0.0490 F   0  0  0  0  0  0
    4.0199    2.6745   -2.0390 F   0  0  0  0  0  0
    5.7171    1.9279   -0.9317 F   0  0  0  0  0  0
   -0.2664    2.5780   -0.3029 O   0  0  0  0  0  0
    2.2390    1.2362   -0.3390 N   0  0  0  0  0  0
   -2.0164    1.1786    0.1953 N   0  0  0  0  0  0
   -5.5284    3.5557   -0.0632 N   0  0  0  0  0  0
    0.0306    0.3540    0.1444 N   0  0  0  0  0  0
   -4.4298    1.4396    0.4796 C   0  0  0  0  0  0
   -3.1632    2.0010    0.1056 C   0  0  0  0  0  0
   -5.5920    2.2703    0.3764 C   0  0  0  0  0  0
    3.5780    1.0168   -0.4411 C   0  0  0  0  0  0
    4.4188    2.2250   -0.8483 C   0  0  0  0  0  0
    1.4249    0.2018    0.0217 C   0  0  0  0  0  0
   -4.6004    0.1047    0.9498 C   0  0  0  0  0  0
   -0.7153    1.4678   -0.0148 C   0  0  0  0  0  0
   -6.8602    1.7540    0.7386 C   0  0  0  0  0  0
   -3.1391    3.3287   -0.3521 C   0  0  0  0  0  0
   -6.9821    0.4442    1.1931 C   0  0  0  0  0  0
    4.1472   -0.2372   -0.1891 C   0  0  0  0  0  0
   -5.8613   -0.3721    1.2973 C   0  0  0  0  0  0
   -4.3225    4.0542   -0.4158 C   0  0  0  0  0  0
    1.9346   -1.0739    0.2852 C   0  0  0  0  0  0
    3.3093   -1.2907    0.1778 C   0  0  0  0  0  0
   -2.2201    0.2229    0.4483 H   0  0  0  0  0  0
   -0.4632   -0.4899    0.3947 H   0  0  0  0  0  0
   -3.7476   -0.5513    1.0419 H   0  0  0  0  0  0
   -7.7349    2.3844    0.6593 H   0  0  0  0  0  0
   -2.2350    3.8220   -0.6688 H   0  0  0  0  0  0
    5.2118   -0.3999   -0.2735 H   0  0  0  0  0  0
   -5.9667   -1.3872    1.6518 H   0  0  0  0  0  0
   -4.3154    5.0759   -0.7662 H   0  0  0  0  0  0
    1.2836   -1.8886    0.5694 H   0  0  0  0  0  0
    3.7223   -2.2686    0.3774 H   0  0  0  0  0  0
  1 20  1  0  0  0
  2 14  1  0  0  0
  3 14  1  0  0  0
  4 14  1  0  0  0
  5 17  2  0  0  0
  6 13  2  0  0  0
  6 15  1  0  0  0
  7 11  1  0  0  0
  7 17  1  0  0  0
  7 26  1  0  0  0
  8 12  2  0  0  0
  8 23  1  0  0  0
  9 15  1  0  0  0
  9 17  1  0  0  0
  9 27  1  0  0  0
 10 11  2  0  0  0
 10 12  1  0  0  0
 10 16  1  0  0  0
 11 19  1  0  0  0
 12 18  1  0  0  0
 13 14  1  0  0  0
 13 21  1  0  0  0
 15 24  2  0  0  0
 16 22  2  0  0  0
 16 28  1  0  0  0
 18 20  2  0  0  0
 18 29  1  0  0  0
 19 23  2  0  0  0
 19 30  1  0  0  0
 20 22  1  0  0  0
 21 25  2  0  0  0
 21 31  1  0  0  0
 22 32  1  0  0  0
 23 33  1  0  0  0
 24 25  1  0  0  0
 24 34  1  0  0  0
 25 35  1  0  0  0
M  END
> <chembl_id>
CHEMBL1981744

> <chembl_pref_name>
None

> <s_m_source_file>
sdf/inactives_sanitized.sdf

> <i_m_source_file_index>
108

> <i_lp_mmshare_version>
49012

> <i_m_ct_stereo_status>
1

> <i_f3d_flags>
0

> <s_epik_input>
W2NIXTFbY0hdYyhDbClbY0hdYyhjMTIpbltjSF1bY0hdYzJbTkhdQyg9TylbTkhdYyhuYzNDKEYpKEYpRilbY0hdW2NIXVtjSF0z

> <s_epik_cmdline>
J2VwaWtfcHl0aG9uJywgJy1waHQnLCAnMC41JywgJy1waCcsICc3LjUnLCAnLW50JywgJy1tYScsICcyMDAnLCAnLWltYWUnLCAnPGluZmlsZS5tYWU+JywgJy1vbWFlJywgJzxvdXRmaWxlLm1hZT4n

> <r_lp_tautomer_probability>
1

> <r_epik_Ionization_Penalty>
  0.0027

> <r_epik_Ionization_Penalty_Charging>
  0.0000

> <r_epik_Ionization_Penalty_Neutral>
  0.0027

> <r_epik_State_Penalty>
 -0.0000

> <r_epik_Charging_Adjusted_Penalty>
0

> <i_epik_Tot_Q>
0

> <i_epik_Tot_abs_Q>
0

> <s_lp_Force_Field>
OPLS3e

> <r_lp_Energy>
46.675272

> <b_lp_Chiralities_Consistent>
1

> <s_lp_Variant>
sdf/inactives_sanitized.sdf:108-1

$$$$
sdf/inactives_sanitized.sdf:109
                    3D
 Schrodinger Suite 2020-1.
 59 64  0  0  1  0            999 V2000
   -7.4446   -1.0625   -1.2363 C   0  0  0  0  0  0
   -6.2905   -0.4727   -0.5613 N   0  0  0  0  0  0
   -5.0129   -0.8215   -0.8551 C   0  0  0  0  0  0
   -4.6315   -1.6553   -1.6805 O   0  0  0  0  0  0
   -4.2420   -0.0180   -0.0695 N   0  0  0  0  0  0
   -2.8399   -0.0103   -0.0969 C   0  0  0  0  0  0
   -2.1192   -1.1124    0.3686 C   0  0  0  0  0  0
   -0.7282   -1.0690    0.3899 C   0  0  0  0  0  0
   -0.0401    0.0705   -0.0555 C   0  0  0  0  0  0
   -0.7798    1.1626   -0.5314 C   0  0  0  0  0  0
   -2.1701    1.1234   -0.5611 C   0  0  0  0  0  0
    1.5022    0.1575   -0.0084 C   0  0  0  0  0  0
    2.0782    0.5512   -1.3891 C   0  0  0  0  0  0
    1.9307    1.1954    1.0528 C   0  0  0  0  0  0
    2.1148   -1.1383    0.3575 C   0  0  0  0  0  0
    2.5976   -2.1515    0.6429 N   0  0  0  0  0  0
   -5.0345    0.7194    0.8111 C   0  0  0  0  0  0
   -6.3278    0.4529    0.4551 C   0  0  0  0  0  0
   -7.3872    1.0689    1.1125 C   0  0  0  0  0  0
   -7.1922    1.9435    2.1310 N   0  0  0  0  0  0
   -5.9123    2.2091    2.5297 C   0  0  0  0  0  0
   -5.7157    3.1085    3.6017 C   0  0  0  0  0  0
   -4.4298    3.4017    4.0463 C   0  0  0  0  0  0
   -3.2995    2.8181    3.4639 C   0  0  0  0  0  0
   -3.4838    1.9222    2.4048 C   0  0  0  0  0  0
   -4.7737    1.6075    1.9032 C   0  0  0  0  0  0
   -1.9223    3.1436    3.9494 C   0  0  0  0  0  0
   -0.8804    2.2093    3.8808 C   0  0  0  0  0  0
    0.3915    2.4439    4.2846 N   0  0  0  0  0  0
    0.6907    3.6680    4.7958 C   0  0  0  0  0  0
    2.0169    3.9304    5.2178 C   0  0  0  0  0  0
    2.3484    5.1762    5.7462 C   0  0  0  0  0  0
    1.3861    6.1750    5.8655 C   0  0  0  0  0  0
    0.0734    5.9485    5.4576 C   0  0  0  0  0  0
   -0.2951    4.6925    4.9167 C   0  0  0  0  0  0
   -1.6116    4.4019    4.4816 C   0  0  0  0  0  0
   -8.1113   -1.5191   -0.5040 H   0  0  0  0  0  0
   -7.1630   -1.8299   -1.9592 H   0  0  0  0  0  0
   -8.0026   -0.2887   -1.7642 H   0  0  0  0  0  0
   -2.6325   -1.9922    0.7300 H   0  0  0  0  0  0
   -0.2007   -1.9298    0.7715 H   0  0  0  0  0  0
   -0.2803    2.0579   -0.8693 H   0  0  0  0  0  0
   -2.7222    1.9808   -0.9191 H   0  0  0  0  0  0
    1.7716   -0.1554   -2.1618 H   0  0  0  0  0  0
    3.1691    0.5609   -1.3749 H   0  0  0  0  0  0
    1.7587    1.5438   -1.7070 H   0  0  0  0  0  0
    1.5668    0.9203    2.0438 H   0  0  0  0  0  0
    1.5470    2.1920    0.8303 H   0  0  0  0  0  0
    3.0168    1.2744    1.1179 H   0  0  0  0  0  0
   -8.4148    0.8716    0.8450 H   0  0  0  0  0  0
   -6.5701    3.5677    4.0788 H   0  0  0  0  0  0
   -4.3222    4.0884    4.8730 H   0  0  0  0  0  0
   -2.6202    1.4642    1.9580 H   0  0  0  0  0  0
   -1.0506    1.2148    3.4955 H   0  0  0  0  0  0
    2.7698    3.1603    5.1284 H   0  0  0  0  0  0
    3.3617    5.3694    6.0670 H   0  0  0  0  0  0
    1.6603    7.1348    6.2780 H   0  0  0  0  0  0
   -0.6681    6.7288    5.5520 H   0  0  0  0  0  0
   -2.3624    5.1754    4.5551 H   0  0  0  0  0  0
  1  2  1  0  0  0
  1 37  1  0  0  0
  1 38  1  0  0  0
  1 39  1  0  0  0
  2  3  1  0  0  0
  2 18  1  0  0  0
  3  4  2  0  0  0
  3  5  1  0  0  0
  5  6  1  0  0  0
  5 17  1  0  0  0
  6  7  2  0  0  0
  6 11  1  0  0  0
  7  8  1  0  0  0
  7 40  1  0  0  0
  8  9  2  0  0  0
  8 41  1  0  0  0
  9 10  1  0  0  0
  9 12  1  0  0  0
 10 11  2  0  0  0
 10 42  1  0  0  0
 11 43  1  0  0  0
 12 13  1  0  0  0
 12 14  1  0  0  0
 12 15  1  0  0  0
 13 44  1  0  0  0
 13 45  1  0  0  0
 13 46  1  0  0  0
 14 47  1  0  0  0
 14 48  1  0  0  0
 14 49  1  0  0  0
 15 16  3  0  0  0
 17 18  2  0  0  0
 17 26  1  0  0  0
 18 19  1  0  0  0
 19 20  2  0  0  0
 19 50  1  0  0  0
 20 21  1  0  0  0
 21 22  2  0  0  0
 21 26  1  0  0  0
 22 23  1  0  0  0
 22 51  1  0  0  0
 23 24  2  0  0  0
 23 52  1  0  0  0
 24 25  1  0  0  0
 24 27  1  0  0  0
 25 26  2  0  0  0
 25 53  1  0  0  0
 27 28  2  0  0  0
 27 36  1  0  0  0
 28 29  1  0  0  0
 28 54  1  0  0  0
 29 30  2  0  0  0
 30 31  1  0  0  0
 30 35  1  0  0  0
 31 32  2  0  0  0
 31 55  1  0  0  0
 32 33  1  0  0  0
 32 56  1  0  0  0
 33 34  2  0  0  0
 33 57  1  0  0  0
 34 35  1  0  0  0
 34 58  1  0  0  0
 35 36  2  0  0  0
 36 59  1  0  0  0
M  END
> <chembl_id>
CHEMBL1879463

> <chembl_pref_name>
DACTOLISIB

> <s_m_source_file>
sdf/inactives_sanitized.sdf

> <i_m_source_file_index>
109

> <i_lp_mmshare_version>
49012

> <i_m_ct_stereo_status>
1

> <i_f3d_flags>
0

> <s_epik_input>
TiNDQyhbQ0gzXSkoW0NIM10pYyhbY0hdW2NIXTEpW2NIXVtjSF1jMS1uMmMoPU8pbihbQ0gzXSljKGMyMylbY0hdbmM0YzNbY0hdYyhbY0hdW2NIXTQpLWMoW2NIXW41KVtjSF1jKGM1NilbY0hdW2NIXVtjSF1bY0hdNg==

> <s_epik_cmdline>
J2VwaWtfcHl0aG9uJywgJy1waHQnLCAnMC41JywgJy1waCcsICc3LjUnLCAnLW50JywgJy1tYScsICcyMDAnLCAnLWltYWUnLCAnPGluZmlsZS5tYWU+JywgJy1vbWFlJywgJzxvdXRmaWxlLm1hZT4n

> <r_lp_tautomer_probability>
1

> <r_epik_Ionization_Penalty>
  0.0011

> <r_epik_Ionization_Penalty_Charging>
  0.0000

> <r_epik_Ionization_Penalty_Neutral>
  0.0011

> <r_epik_State_Penalty>
 -0.0000

> <r_epik_Charging_Adjusted_Penalty>
1.41782713529091e-10

> <i_epik_Tot_Q>
0

> <i_epik_Tot_abs_Q>
0

> <s_lp_Force_Field>
OPLS3e

> <r_lp_Energy>
66.107756

> <b_lp_Chiralities_Consistent>
1

> <s_lp_Variant>
sdf/inactives_sanitized.sdf:109-1

$$$$
sdf/inactives_sanitized.sdf:110
                    3D
 Schrodinger Suite 2020-1.
 46 49  0  0  1  0            999 V2000
    3.2239    2.3864   -3.4173 O   0  0  0  0  0  0
    4.5985    1.9333   -3.1785 S   0  0  0  0  0  0
    5.5280    2.7414   -2.3822 O   0  0  0  0  0  0
    4.5229    0.3383   -2.4067 N   0  0  0  0  0  0
    0.1805    7.5622   -1.7792 C   0  0  0  0  0  0
   -0.1730    8.9112   -1.7323 C   0  0  0  0  0  0
   -1.0993    9.4373   -0.8882 N   0  0  0  0  0  0
   -0.4398    6.6603   -0.9128 C   0  0  0  0  0  0
   -1.4084    7.1526   -0.0164 C   0  0  0  0  0  0
   -1.6780    8.5523   -0.0696 C   0  0  0  0  0  0
   -2.6410    8.8232    0.8740 N   0  0  0  0  0  0
   -2.9854    7.6594    1.5146 C   0  0  0  0  0  0
   -2.2577    6.5904    1.0089 C   0  0  0  0  0  0
   -2.3616    5.1986    1.4497 C   0  0  0  0  0  0
   -1.6886    4.2453    0.8290 N   0  0  0  0  0  0
   -1.8901    3.0539    1.3459 C   0  0  0  0  0  0
   -2.9743    3.0232    2.6926 S   0  0  0  0  0  0
   -3.1410    4.7449    2.5178 C   0  0  0  0  0  0
   -1.3388    1.8478    0.9359 N   0  0  0  0  0  0
   -0.4356    1.6730   -0.0550 C   0  0  0  0  0  0
    0.0199    0.2261   -0.2985 C   0  0  0  0  0  0
    0.0246    2.5779   -0.7553 O   0  0  0  0  0  0
    1.5364    0.0859   -0.2138 C   0  0  0  0  0  0
    2.3273    0.2631   -1.3547 C   0  0  0  0  0  0
    3.7207    0.1725   -1.2733 C   0  0  0  0  0  0
    4.3224   -0.1135   -0.0456 C   0  0  0  0  0  0
    3.5401   -0.2823    1.0968 C   0  0  0  0  0  0
    2.1519   -0.1766    1.0148 C   0  0  0  0  0  0
    5.4026    1.5262   -4.8334 C   0  0  0  0  0  0
    5.4595    0.0131   -2.2177 H   0  0  0  0  0  0
    0.9281    7.2178   -2.4791 H   0  0  0  0  0  0
    0.3039    9.6138   -2.3999 H   0  0  0  0  0  0
   -0.1768    5.6129   -0.9368 H   0  0  0  0  0  0
   -3.0583    9.7157    1.0955 H   0  0  0  0  0  0
   -3.7354    7.6892    2.2915 H   0  0  0  0  0  0
   -3.7759    5.3133    3.1811 H   0  0  0  0  0  0
   -1.6373    1.0295    1.4461 H   0  0  0  0  0  0
   -0.4492   -0.4549    0.4145 H   0  0  0  0  0  0
   -0.3269   -0.0767   -1.2878 H   0  0  0  0  0  0
    1.8534    0.4738   -2.3027 H   0  0  0  0  0  0
    5.3972   -0.1951    0.0302 H   0  0  0  0  0  0
    4.0100   -0.4917    2.0463 H   0  0  0  0  0  0
    1.5554   -0.3008    1.9071 H   0  0  0  0  0  0
    5.4849    2.4407   -5.4199 H   0  0  0  0  0  0
    4.7814    0.8018   -5.3596 H   0  0  0  0  0  0
    6.3928    1.1086   -4.6536 H   0  0  0  0  0  0
  1  2  2  0  0  0
  2  3  2  0  0  0
  2  4  1  0  0  0
  2 29  1  0  0  0
  4 25  1  0  0  0
  4 30  1  0  0  0
  5  6  2  0  0  0
  5  8  1  0  0  0
  5 31  1  0  0  0
  6  7  1  0  0  0
  6 32  1  0  0  0
  7 10  2  0  0  0
  8  9  2  0  0  0
  8 33  1  0  0  0
  9 10  1  0  0  0
  9 13  1  0  0  0
 10 11  1  0  0  0
 11 12  1  0  0  0
 11 34  1  0  0  0
 12 13  2  0  0  0
 12 35  1  0  0  0
 13 14  1  0  0  0
 14 15  1  0  0  0
 14 18  2  0  0  0
 15 16  2  0  0  0
 16 17  1  0  0  0
 16 19  1  0  0  0
 17 18  1  0  0  0
 18 36  1  0  0  0
 19 20  1  0  0  0
 19 37  1  0  0  0
 20 21  1  0  0  0
 20 22  2  0  0  0
 21 23  1  0  0  0
 21 38  1  0  0  0
 21 39  1  0  0  0
 23 24  2  0  0  0
 23 28  1  0  0  0
 24 25  1  0  0  0
 24 40  1  0  0  0
 25 26  2  0  0  0
 26 27  1  0  0  0
 26 41  1  0  0  0
 27 28  2  0  0  0
 27 42  1  0  0  0
 28 43  1  0  0  0
 29 44  1  0  0  0
 29 45  1  0  0  0
 29 46  1  0  0  0
M  END
> <chembl_id>
CHEMBL4249925

> <chembl_pref_name>
None

> <s_m_source_file>
sdf/inactives_sanitized.sdf

> <i_m_source_file_index>
110

> <i_lp_mmshare_version>
49012

> <i_m_ct_stereo_status>
1

> <i_f3d_flags>
0

> <s_epik_input>
Tz1TKD1PKShbQ0gzXSlbTkhdYyhbY0hdW2NIXVtjSF0xKVtjSF1jMVtDSDJdQyg9TylbTkhdYyhzW2NIXTIpbmMyLWMzW2NIXVtuSF1jKGMzNCluW2NIXVtjSF1bY0hdNA==

> <s_epik_cmdline>
J2VwaWtfcHl0aG9uJywgJy1waHQnLCAnMC41JywgJy1waCcsICc3LjUnLCAnLW50JywgJy1tYScsICcyMDAnLCAnLWltYWUnLCAnPGluZmlsZS5tYWU+JywgJy1vbWFlJywgJzxvdXRmaWxlLm1hZT4n

> <r_lp_tautomer_probability>
0.998998924059464

> <r_epik_Ionization_Penalty>
  0.0667

> <r_epik_Ionization_Penalty_Charging>
  0.0000

> <r_epik_Ionization_Penalty_Neutral>
  0.0667

> <r_epik_State_Penalty>
  0.0558

> <r_epik_Charging_Adjusted_Penalty>
0.0557555411237897

> <i_epik_Tot_Q>
0

> <i_epik_Tot_abs_Q>
0

> <s_lp_Force_Field>
OPLS3e

> <r_lp_Energy>
32.809563

> <b_lp_Chiralities_Consistent>
1

> <s_lp_Variant>
sdf/inactives_sanitized.sdf:110-1

$$$$
sdf/inactives_sanitized.sdf:111
                    3D
 Schrodinger Suite 2020-1.
 64 68  0  0  1  0            999 V2000
   13.8328    1.5142    0.2546 F   0  0  0  0  0  0
   -0.4489   -0.1084   -0.2942 O   0  0  0  0  0  0
   10.2516   -0.8556   -2.1585 O   0  0  0  0  0  0
    1.3805   -2.3619    0.2553 N   0  0  0  0  0  0
    2.4651   -3.1271    0.4552 N   0  0  0  0  0  0
    4.7831   -2.8358    0.4043 N   0  0  0  0  0  0
    9.4554    0.7420   -0.7186 N   0  0  0  0  0  0
   11.6236    0.6403   -1.0993 N   0  0  0  0  0  0
   -2.6311    0.7870    2.2633 N   0  0  0  0  0  0
    3.1346   -1.0298   -0.1176 C   0  0  0  0  0  0
    1.7133   -1.0655   -0.0851 C   0  0  0  0  0  0
    3.7900    0.1796   -0.4524 C   0  0  0  0  0  0
    3.5091   -2.3680    0.2531 C   0  0  0  0  0  0
    0.9201    0.0536   -0.3571 C   0  0  0  0  0  0
    5.2697    0.2938   -0.5376 C   0  0  0  0  0  0
    2.9890    1.2975   -0.7100 C   0  0  0  0  0  0
    1.5995    1.2394   -0.6659 C   0  0  0  0  0  0
    5.9463    1.2615    0.2100 C   0  0  0  0  0  0
    6.0015   -0.5438   -1.3841 C   0  0  0  0  0  0
    8.0618    0.5347   -0.7112 C   0  0  0  0  0  0
    7.3305    1.3795    0.1261 C   0  0  0  0  0  0
    7.3863   -0.4320   -1.4724 C   0  0  0  0  0  0
   -1.2822    1.0352   -0.4561 C   0  0  0  0  0  0
   10.4262    0.0938   -1.3947 C   0  0  0  0  0  0
   12.9012    0.3277   -1.6078 C   0  0  0  0  0  0
   14.0056    0.7974   -0.8823 C   0  0  0  0  0  0
   13.1238   -0.4063   -2.7871 C   0  0  0  0  0  0
   -2.7496    0.6327   -0.2197 C   0  0  0  0  0  0
   14.4245   -0.6747   -3.2233 C   0  0  0  0  0  0
   15.3027    0.5316   -1.3214 C   0  0  0  0  0  0
   15.5127   -0.2013   -2.4876 C   0  0  0  0  0  0
   -3.0355   -0.0479    1.1384 C   0  0  0  0  0  0
   14.6502   -1.4543   -4.5063 C   0  0  0  0  0  0
   -3.3325    1.8547    2.7750 C   0  0  0  0  0  0
   -1.4472    0.6983    2.9607 C   0  0  0  0  0  0
   -2.6049    2.4174    3.8124 C   0  0  0  0  0  0
   -1.4183    1.6899    3.9289 C   0  0  0  0  0  0
    0.4550   -2.7505    0.3666 H   0  0  0  0  0  0
    5.5828   -2.2215    0.3441 H   0  0  0  0  0  0
    4.9654   -3.7957    0.6602 H   0  0  0  0  0  0
    9.7612    1.4949   -0.1199 H   0  0  0  0  0  0
   11.6286    1.3386   -0.3703 H   0  0  0  0  0  0
    3.4553    2.2385   -0.9653 H   0  0  0  0  0  0
    1.0510    2.1428   -0.8861 H   0  0  0  0  0  0
    5.3985    1.9245    0.8641 H   0  0  0  0  0  0
    5.4942   -1.2882   -1.9811 H   0  0  0  0  0  0
    7.8289    2.1341    0.7181 H   0  0  0  0  0  0
    7.8973   -1.1057   -2.1402 H   0  0  0  0  0  0
   -0.9978    1.8224    0.2446 H   0  0  0  0  0  0
   -1.1708    1.4392   -1.4638 H   0  0  0  0  0  0
   12.3038   -0.7635   -3.3903 H   0  0  0  0  0  0
   -3.3805    1.5168   -0.3210 H   0  0  0  0  0  0
   -3.0614   -0.0412   -1.0186 H   0  0  0  0  0  0
   16.1490    0.8961   -0.7578 H   0  0  0  0  0  0
   16.5226   -0.3968   -2.8182 H   0  0  0  0  0  0
   -2.5050   -0.9985    1.2145 H   0  0  0  0  0  0
   -4.0984   -0.2707    1.2430 H   0  0  0  0  0  0
   15.6263   -1.2349   -4.9409 H   0  0  0  0  0  0
   13.9043   -1.1832   -5.2547 H   0  0  0  0  0  0
   14.5746   -2.5262   -4.3218 H   0  0  0  0  0  0
   -4.2928    2.1222    2.3583 H   0  0  0  0  0  0
   -0.7243   -0.0639    2.7077 H   0  0  0  0  0  0
   -2.8975    3.2656    4.4139 H   0  0  0  0  0  0
   -0.6228    1.8708    4.6370 H   0  0  0  0  0  0
  1 26  1  0  0  0
  2 14  1  0  0  0
  2 23  1  0  0  0
  3 24  2  0  0  0
  4  5  1  0  0  0
  4 11  1  0  0  0
  4 38  1  0  0  0
  5 13  2  0  0  0
  6 13  1  0  0  0
  6 39  1  0  0  0
  6 40  1  0  0  0
  7 20  1  0  0  0
  7 24  1  0  0  0
  7 41  1  0  0  0
  8 24  1  0  0  0
  8 25  1  0  0  0
  8 42  1  0  0  0
  9 32  1  0  0  0
  9 34  1  0  0  0
  9 35  1  0  0  0
 10 11  2  0  0  0
 10 12  1  0  0  0
 10 13  1  0  0  0
 11 14  1  0  0  0
 12 15  1  0  0  0
 12 16  2  0  0  0
 14 17  2  0  0  0
 15 18  2  0  0  0
 15 19  1  0  0  0
 16 17  1  0  0  0
 16 43  1  0  0  0
 17 44  1  0  0  0
 18 21  1  0  0  0
 18 45  1  0  0  0
 19 22  2  0  0  0
 19 46  1  0  0  0
 20 21  2  0  0  0
 20 22  1  0  0  0
 21 47  1  0  0  0
 22 48  1  0  0  0
 23 28  1  0  0  0
 23 49  1  0  0  0
 23 50  1  0  0  0
 25 26  2  0  0  0
 25 27  1  0  0  0
 26 30  1  0  0  0
 27 29  2  0  0  0
 27 51  1  0  0  0
 28 32  1  0  0  0
 28 52  1  0  0  0
 28 53  1  0  0  0
 29 31  1  0  0  0
 29 33  1  0  0  0
 30 31  2  0  0  0
 30 54  1  0  0  0
 31 55  1  0  0  0
 32 56  1  0  0  0
 32 57  1  0  0  0
 33 58  1  0  0  0
 33 59  1  0  0  0
 33 60  1  0  0  0
 34 36  2  0  0  0
 34 61  1  0  0  0
 35 37  2  0  0  0
 35 62  1  0  0  0
 36 37  1  0  0  0
 36 63  1  0  0  0
 37 64  1  0  0  0
M  END
> <chembl_id>
CHEMBL2007266

> <chembl_pref_name>
None

> <s_m_source_file>
sdf/inactives_sanitized.sdf

> <i_m_source_file_index>
111

> <i_lp_mmshare_version>
49012

> <i_m_ct_stereo_status>
1

> <i_f3d_flags>
0

> <s_epik_input>
W2NIXTFjKFtDSDNdKVtjSF1bY0hdYyhGKWMxW05IXUMoPU8pW05IXWMoW2NIXVtjSF0yKVtjSF1bY0hdYzItYzNbY0hdW2NIXWMoYyhjMzQpW25IXW5jNFtOSDJdKU9bQ0gyXVtDSDJdW0NIMl1uNVtjSF1bY0hdW2NIXVtjSF01

> <s_epik_cmdline>
J2VwaWtfcHl0aG9uJywgJy1waHQnLCAnMC41JywgJy1waCcsICc3LjUnLCAnLW50JywgJy1tYScsICcyMDAnLCAnLWltYWUnLCAnPGluZmlsZS5tYWU+JywgJy1vbWFlJywgJzxvdXRmaWxlLm1hZT4n

> <r_lp_tautomer_probability>
1

> <r_epik_Ionization_Penalty>
  0.0001

> <r_epik_Ionization_Penalty_Charging>
  0.0000

> <r_epik_Ionization_Penalty_Neutral>
  0.0001

> <r_epik_State_Penalty>
 -0.0000

> <r_epik_Charging_Adjusted_Penalty>
0

> <i_epik_Tot_Q>
0

> <i_epik_Tot_abs_Q>
0

> <s_lp_Force_Field>
OPLS3e

> <r_lp_Energy>
44.796796

> <b_lp_Chiralities_Consistent>
1

> <s_lp_Variant>
sdf/inactives_sanitized.sdf:111-1

$$$$
sdf/inactives_sanitized.sdf:112
                    3D
 Schrodinger Suite 2020-1.
 26 28  0  0  1  0            999 V2000
    0.1665    2.3612   -0.7576 O   0  0  0  0  0  0
    4.4449    1.8163   -0.7267 N   0  0  0  0  0  0
    2.0387    3.5264   -0.6836 N   0  0  0  0  0  0
    4.0978   -0.3101    0.0817 N   0  0  0  0  0  0
    1.9541   -1.2347    0.6128 N   0  0  0  0  0  0
   -0.0129   -0.0884    0.4391 N   0  0  0  0  0  0
    2.1210    1.0660   -0.2023 C   0  0  0  0  0  0
    3.5267    0.8710   -0.2728 C   0  0  0  0  0  0
    1.3848    2.3551   -0.5842 C   0  0  0  0  0  0
    4.4463    3.1397   -1.1611 C   0  0  0  0  0  0
    1.3743   -0.0612    0.2641 C   0  0  0  0  0  0
    3.2947    3.9524   -1.1205 C   0  0  0  0  0  0
    3.2938   -1.3045    0.5057 C   0  0  0  0  0  0
    5.6417    3.6933   -1.6390 C   0  0  0  0  0  0
    3.3823    5.2717   -1.5860 C   0  0  0  0  0  0
    5.7147    5.0084   -2.0862 C   0  0  0  0  0  0
    4.5767    5.8019   -2.0622 C   0  0  0  0  0  0
    5.3760    1.4259   -0.7466 H   0  0  0  0  0  0
    1.3670    4.2740   -0.7778 H   0  0  0  0  0  0
   -0.5556    0.7296    0.1996 H   0  0  0  0  0  0
   -0.4538   -0.9318    0.7759 H   0  0  0  0  0  0
    3.7639   -2.2367    0.7824 H   0  0  0  0  0  0
    6.5372    3.0890   -1.6685 H   0  0  0  0  0  0
    2.5067    5.9057   -1.5770 H   0  0  0  0  0  0
    6.6491    5.4083   -2.4516 H   0  0  0  0  0  0
    4.6183    6.8233   -2.4106 H   0  0  0  0  0  0
  1  9  2  0  0  0
  2  8  1  0  0  0
  2 10  1  0  0  0
  2 18  1  0  0  0
  3  9  1  0  0  0
  3 12  1  0  0  0
  3 19  1  0  0  0
  4  8  2  0  0  0
  4 13  1  0  0  0
  5 11  1  0  0  0
  5 13  2  0  0  0
  6 11  1  0  0  0
  6 20  1  0  0  0
  6 21  1  0  0  0
  7  8  1  0  0  0
  7  9  1  0  0  0
  7 11  2  0  0  0
 10 12  2  0  0  0
 10 14  1  0  0  0
 12 15  1  0  0  0
 13 22  1  0  0  0
 14 16  2  0  0  0
 14 23  1  0  0  0
 15 17  2  0  0  0
 15 24  1  0  0  0
 16 17  1  0  0  0
 16 25  1  0  0  0
 17 26  1  0  0  0
M  END
> <chembl_id>
CHEMBL1980671

> <chembl_pref_name>
None

> <s_m_source_file>
sdf/inactives_sanitized.sdf

> <i_m_source_file_index>
112

> <i_lp_mmshare_version>
49012

> <i_m_ct_stereo_status>
1

> <i_f3d_flags>
0

> <s_epik_input>
W2NIXTFbY0hdW2NIXVtjSF1jKFtOSF1DMj1PKWMxW05IXWMoYzIzKW5bY0hdbmMzW05IMl0=

> <s_epik_cmdline>
J2VwaWtfcHl0aG9uJywgJy1waHQnLCAnMC41JywgJy1waCcsICc3LjUnLCAnLW50JywgJy1tYScsICcyMDAnLCAnLWltYWUnLCAnPGluZmlsZS5tYWU+JywgJy1vbWFlJywgJzxvdXRmaWxlLm1hZT4n

> <r_lp_tautomer_probability>
1

> <r_epik_Ionization_Penalty>
  0.0039

> <r_epik_Ionization_Penalty_Charging>
  0.0000

> <r_epik_Ionization_Penalty_Neutral>
  0.0039

> <r_epik_State_Penalty>
 -0.0000

> <r_epik_Charging_Adjusted_Penalty>
0

> <i_epik_Tot_Q>
0

> <i_epik_Tot_abs_Q>
0

> <s_lp_Force_Field>
OPLS3e

> <r_lp_Energy>
45.514128

> <b_lp_Chiralities_Consistent>
1

> <s_lp_Variant>
sdf/inactives_sanitized.sdf:112-1

$$$$
sdf/inactives_sanitized.sdf:113
                    3D
 Schrodinger Suite 2020-1.
 62 65  0  0  1  0            999 V2000
   -1.7882    3.6650    0.7297 O   0  0  0  0  0  0
    1.6557    4.5267    0.7416 O   0  0  0  0  0  0
    5.7516   -0.6926   -0.3359 O   0  0  0  0  0  0
   10.0369   -1.4425    1.0408 O   0  0  0  0  0  0
    8.5362   -2.7904    1.9642 O   0  5  0  0  0  0
    0.2042   -0.0694    0.0997 N   0  0  0  0  0  0
   -0.6029   -1.1428    0.0110 N   0  0  0  0  0  0
    0.0796    2.3349    0.4251 N   0  0  0  0  0  0
   -0.5201    1.0938    0.2721 C   0  0  0  0  0  0
   -1.8448   -0.7095    0.1083 C   0  0  0  0  0  0
   -1.8467    0.6829    0.2706 C   0  0  0  0  0  0
    1.6070   -0.2465    0.0053 C   0  0  0  0  0  0
   -3.0516   -1.6593    0.0428 C   0  0  0  0  0  0
   -0.1665    6.0589    1.0616 C   0  0  0  0  0  0
   -0.5697    3.4997    0.6367 C   0  0  0  0  0  0
    0.4369    4.7220    0.7694 C   0  0  0  0  0  0
    0.0789    6.7767    2.2832 C   0  0  0  0  0  0
   -0.5286    8.0626    2.4616 C   0  0  0  0  0  0
    2.3760    0.6290   -0.7683 C   0  0  0  0  0  0
    2.2282   -1.3040    0.6799 C   0  0  0  0  0  0
   -0.9913    6.6315    0.0862 C   0  0  0  0  0  0
    0.8942    6.2751    3.3429 C   0  0  0  0  0  0
    4.3810   -0.5976   -0.1848 C   0  0  0  0  0  0
    3.7533    0.4509   -0.8580 C   0  0  0  0  0  0
    3.6064   -1.4771    0.5879 C   0  0  0  0  0  0
   -1.3532    8.5925    1.4415 C   0  0  0  0  0  0
   -3.9565   -1.4205    1.2739 C   0  0  0  0  0  0
   -2.6355   -3.1538    0.0302 C   0  0  0  0  0  0
   -3.8553   -1.3590   -1.2423 C   0  0  0  0  0  0
   -1.5764    7.8763    0.2734 C   0  0  0  0  0  0
   -0.2991    8.7882    3.6577 C   0  0  0  0  0  0
    1.0963    7.0135    4.5048 C   0  0  0  0  0  0
    0.5059    8.2603    4.6607 C   0  0  0  0  0  0
    6.4579   -1.7502    0.3106 C   0  0  0  0  0  0
    7.9540   -1.6780   -0.0828 C   0  0  0  0  0  0
    8.9129   -1.9900    1.0785 C   0  0  0  0  0  0
    1.0885    2.3566    0.3812 H   0  0  0  0  0  0
   -2.7217    1.3058    0.3802 H   0  0  0  0  0  0
    1.9166    1.4412   -1.3124 H   0  0  0  0  0  0
    1.6506   -1.9905    1.2824 H   0  0  0  0  0  0
   -1.1867    6.1104   -0.8412 H   0  0  0  0  0  0
    1.3646    5.3071    3.2563 H   0  0  0  0  0  0
    4.3392    1.1313   -1.4590 H   0  0  0  0  0  0
    4.0551   -2.2990    1.1246 H   0  0  0  0  0  0
   -1.8123    9.5615    1.5753 H   0  0  0  0  0  0
   -4.8362   -2.0656    1.2592 H   0  0  0  0  0  0
   -4.3127   -0.3905    1.3224 H   0  0  0  0  0  0
   -3.4219   -1.6165    2.2046 H   0  0  0  0  0  0
   -2.0641   -3.4173    0.9216 H   0  0  0  0  0  0
   -2.0105   -3.3900   -0.8323 H   0  0  0  0  0  0
   -3.5029   -3.8144   -0.0078 H   0  0  0  0  0  0
   -4.7448   -1.9861   -1.3191 H   0  0  0  0  0  0
   -3.2540   -1.5310   -2.1362 H   0  0  0  0  0  0
   -4.1861   -0.3200   -1.2770 H   0  0  0  0  0  0
   -2.2084    8.2918   -0.4978 H   0  0  0  0  0  0
   -0.7562    9.7586    3.7893 H   0  0  0  0  0  0
    1.7171    6.6134    5.2927 H   0  0  0  0  0  0
    0.6716    8.8225    5.5680 H   0  0  0  0  0  0
    6.3158   -1.6294    1.3872 H   0  0  0  0  0  0
    6.0528   -2.7251    0.0327 H   0  0  0  0  0  0
    8.1565   -2.3699   -0.9006 H   0  0  0  0  0  0
    8.1904   -0.6848   -0.4687 H   0  0  0  0  0  0
  1 15  2  0  0  0
  2 16  2  0  0  0
  3 23  1  0  0  0
  3 34  1  0  0  0
  4 36  2  0  0  0
  5 36  1  0  0  0
  6  7  1  0  0  0
  6  9  1  0  0  0
  6 12  1  0  0  0
  7 10  2  0  0  0
  8  9  1  0  0  0
  8 15  1  0  0  0
  8 37  1  0  0  0
  9 11  2  0  0  0
 10 11  1  0  0  0
 10 13  1  0  0  0
 11 38  1  0  0  0
 12 19  2  0  0  0
 12 20  1  0  0  0
 13 27  1  0  0  0
 13 28  1  0  0  0
 13 29  1  0  0  0
 14 16  1  0  0  0
 14 17  1  0  0  0
 14 21  2  0  0  0
 15 16  1  0  0  0
 17 18  2  0  0  0
 17 22  1  0  0  0
 18 26  1  0  0  0
 18 31  1  0  0  0
 19 24  1  0  0  0
 19 39  1  0  0  0
 20 25  2  0  0  0
 20 40  1  0  0  0
 21 30  1  0  0  0
 21 41  1  0  0  0
 22 32  2  0  0  0
 22 42  1  0  0  0
 23 24  2  0  0  0
 23 25  1  0  0  0
 24 43  1  0  0  0
 25 44  1  0  0  0
 26 30  2  0  0  0
 26 45  1  0  0  0
 27 46  1  0  0  0
 27 47  1  0  0  0
 27 48  1  0  0  0
 28 49  1  0  0  0
 28 50  1  0  0  0
 28 51  1  0  0  0
 29 52  1  0  0  0
 29 53  1  0  0  0
 29 54  1  0  0  0
 30 55  1  0  0  0
 31 33  2  0  0  0
 31 56  1  0  0  0
 32 33  1  0  0  0
 32 57  1  0  0  0
 33 58  1  0  0  0
 34 35  1  0  0  0
 34 59  1  0  0  0
 34 60  1  0  0  0
 35 36  1  0  0  0
 35 61  1  0  0  0
 35 62  1  0  0  0
M  CHG  1   5  -1
M  END
> <chembl_id>
CHEMBL2003689

> <chembl_pref_name>
None

> <s_m_source_file>
sdf/inactives_sanitized.sdf

> <i_m_source_file_index>
113

> <i_lp_mmshare_version>
49012

> <i_m_ct_stereo_status>
1

> <i_f3d_flags>
0

> <s_epik_input>
W2NIXTFbY0hdW2NIXVtjSF1jKGMxMilbY0hdW2NIXVtjSF1jMkMoPU8pQyg9TylbTkhdYzNbY0hdYyhDKFtDSDNdKShbQ0gzXSlbQ0gzXSlubjMtYzRbY0hdW2NIXWMoW2NIXVtjSF00KU9bQ0gyXVtDSDJdQyg9TylbT0hd

> <s_epik_cmdline>
J2VwaWtfcHl0aG9uJywgJy1waHQnLCAnMC41JywgJy1waCcsICc3LjUnLCAnLW50JywgJy1tYScsICcyMDAnLCAnLWltYWUnLCAnPGluZmlsZS5tYWU+JywgJy1vbWFlJywgJzxvdXRmaWxlLm1hZT4n

> <r_lp_tautomer_probability>
1

> <r_epik_Ionization_Penalty>
  0.0004

> <r_epik_Ionization_Penalty_Charging>
  0.0003

> <r_epik_Ionization_Penalty_Neutral>
  0.0000

> <r_epik_State_Penalty>
 -0.0000

> <r_epik_Charging_Adjusted_Penalty>
0.000330869436675769

> <i_epik_Tot_Q>
-1

> <i_epik_Tot_abs_Q>
1

> <s_lp_Force_Field>
OPLS3e

> <r_lp_Energy>
56.900608

> <b_lp_Chiralities_Consistent>
1

> <s_lp_Variant>
sdf/inactives_sanitized.sdf:113-1

$$$$
sdf/inactives_sanitized.sdf:114
                    3D
 Schrodinger Suite 2020-1.
 15 16  0  0  1  0            999 V2000
   -2.5275   -8.0818   -4.2650 Br  0  0  0  0  0  0
   -2.7490   -4.2111    2.2797 O   0  0  0  0  0  0
   -2.6456   -5.9034    0.6997 N   0  0  0  0  0  0
   -2.7821   -3.8872   -0.0144 N   0  0  0  0  0  0
   -2.7650   -4.3351   -2.4327 N   0  0  0  0  0  0
   -2.6478   -5.9776   -0.6729 C   0  0  0  0  0  0
   -2.7348   -4.6926   -1.1256 C   0  0  0  0  0  0
   -2.7280   -4.6202    1.1214 C   0  0  0  0  0  0
   -2.5829   -7.0329   -1.5826 C   0  0  0  0  0  0
   -2.6111   -6.7112   -2.9474 C   0  0  0  0  0  0
   -2.7019   -5.3618   -3.3283 C   0  0  0  0  0  0
   -2.5901   -6.6985    1.3193 H   0  0  0  0  0  0
   -2.8486   -2.8801   -0.0365 H   0  0  0  0  0  0
   -2.5135   -8.0618   -1.2607 H   0  0  0  0  0  0
   -2.7254   -5.0865   -4.3724 H   0  0  0  0  0  0
  1 10  1  0  0  0
  2  8  2  0  0  0
  3  6  1  0  0  0
  3  8  1  0  0  0
  3 12  1  0  0  0
  4  7  1  0  0  0
  4  8  1  0  0  0
  4 13  1  0  0  0
  5  7  1  0  0  0
  5 11  2  0  0  0
  6  7  2  0  0  0
  6  9  1  0  0  0
  9 10  2  0  0  0
  9 14  1  0  0  0
 10 11  1  0  0  0
 11 15  1  0  0  0
M  END
> <chembl_id>
CHEMBL1975921

> <chembl_pref_name>
None

> <s_m_source_file>
sdf/inactives_sanitized.sdf

> <i_m_source_file_index>
114

> <i_lp_mmshare_version>
49012

> <i_m_ct_stereo_status>
1

> <i_f3d_flags>
0

> <s_epik_input>
QnJjKFtjSF0xKVtjSF1uYyhjMTIpW25IXWMoPU8pW25IXTI=

> <s_epik_cmdline>
J2VwaWtfcHl0aG9uJywgJy1waHQnLCAnMC41JywgJy1waCcsICc3LjUnLCAnLW50JywgJy1tYScsICcyMDAnLCAnLWltYWUnLCAnPGluZmlsZS5tYWU+JywgJy1vbWFlJywgJzxvdXRmaWxlLm1hZT4n

> <r_lp_tautomer_probability>
1

> <r_epik_Ionization_Penalty>
  0.0090

> <r_epik_Ionization_Penalty_Charging>
  0.0046

> <r_epik_Ionization_Penalty_Neutral>
  0.0044

> <r_epik_State_Penalty>
 -0.0000

> <r_epik_Charging_Adjusted_Penalty>
0.00461521936727346

> <i_epik_Tot_Q>
0

> <i_epik_Tot_abs_Q>
0

> <s_lp_Force_Field>
OPLS3e

> <r_lp_Energy>
13.967626

> <b_lp_Chiralities_Consistent>
1

> <s_lp_Variant>
sdf/inactives_sanitized.sdf:114-1

$$$$
sdf/inactives_sanitized.sdf:115
                    3D
 Schrodinger Suite 2020-1.
 38 40  0  0  1  0            999 V2000
   -0.4445   -1.1518   -0.4139 N   0  0  0  0  0  0
    0.1398   -0.0477    0.1180 C   0  0  0  0  0  0
   -0.4169    1.1932    0.1247 N   0  0  0  0  0  0
   -1.6494    1.3412   -0.4304 C   0  0  0  0  0  0
   -2.3237    0.2508   -0.9892 C   0  0  0  0  0  0
   -1.6772   -0.9865   -0.9606 C   0  0  0  0  0  0
   -2.2989    2.5877   -0.4347 N   0  0  0  0  0  0
   -1.9693    3.9055   -0.0408 C   0  0  0  0  0  0
   -2.9700    4.9214    0.0372 C   0  0  0  0  0  0
   -2.5741    6.2085    0.4527 C   0  0  0  0  0  0
   -1.2529    6.5062    0.7661 C   0  0  0  0  0  0
   -0.2831    5.5207    0.6682 C   0  0  0  0  0  0
   -0.6379    4.2386    0.2661 C   0  0  0  0  0  0
   -4.4349    4.7030   -0.2901 C   0  0  0  0  0  0
   -4.8033    3.6112   -0.7794 O   0  5  0  0  0  0
   -5.2333    5.6420   -0.0637 O   0  0  0  0  0  0
    1.4229   -0.2376    0.6544 N   0  0  0  0  0  0
    2.2711    0.6104    1.3885 C   0  0  0  0  0  0
    3.6416    0.3546    1.3431 C   0  0  0  0  0  0
    4.5315    1.1576    2.0510 C   0  0  0  0  0  0
    4.0642    2.2276    2.8265 C   0  0  0  0  0  0
    2.6851    2.4699    2.8814 C   0  0  0  0  0  0
    1.7959    1.6662    2.1742 C   0  0  0  0  0  0
    5.0120    3.0858    3.5790 N   0  3  0  0  0  0
    4.5633    4.0101    4.2514 O   0  0  0  0  0  0
    6.2131    2.8420    3.5031 O   0  5  0  0  0  0
   -3.3066    0.3544   -1.4265 H   0  0  0  0  0  0
   -2.1454   -1.8656   -1.3783 H   0  0  0  0  0  0
   -3.2507    2.5276   -0.7712 H   0  0  0  0  0  0
   -3.2916    7.0128    0.5348 H   0  0  0  0  0  0
   -0.9818    7.5042    1.0775 H   0  0  0  0  0  0
    0.7468    5.7494    0.8989 H   0  0  0  0  0  0
    0.1649    3.5261    0.1885 H   0  0  0  0  0  0
    1.7902   -1.1668    0.5098 H   0  0  0  0  0  0
    4.0267   -0.4635    0.7512 H   0  0  0  0  0  0
    5.5876    0.9397    1.9901 H   0  0  0  0  0  0
    2.2891    3.2808    3.4753 H   0  0  0  0  0  0
    0.7404    1.8736    2.2587 H   0  0  0  0  0  0
  1  2  2  0  0  0
  1  6  1  0  0  0
  2 17  1  0  0  0
  2  3  1  0  0  0
  3  4  2  0  0  0
  4  7  1  0  0  0
  4  5  1  0  0  0
  5  6  2  0  0  0
  5 27  1  0  0  0
  6 28  1  0  0  0
  7  8  1  0  0  0
  7 29  1  0  0  0
  8 13  1  0  0  0
  8  9  2  0  0  0
  9 14  1  0  0  0
  9 10  1  0  0  0
 10 11  2  0  0  0
 10 30  1  0  0  0
 11 12  1  0  0  0
 11 31  1  0  0  0
 12 13  2  0  0  0
 12 32  1  0  0  0
 13 33  1  0  0  0
 14 15  1  0  0  0
 14 16  2  0  0  0
 17 18  1  0  0  0
 17 34  1  0  0  0
 18 19  2  0  0  0
 18 23  1  0  0  0
 19 20  1  0  0  0
 19 35  1  0  0  0
 20 21  2  0  0  0
 20 36  1  0  0  0
 21 22  1  0  0  0
 21 24  1  0  0  0
 22 23  2  0  0  0
 22 37  1  0  0  0
 23 38  1  0  0  0
 24 25  2  0  0  0
 24 26  1  0  0  0
M  CHG  3  15  -1  24   1  26  -1
M  END
> <chembl_id>
CHEMBL242865

> <chembl_pref_name>
None

> <s_m_source_file>
sdf/inactives_sanitized.sdf

> <i_m_source_file_index>
115

> <i_lp_mmshare_version>
49012

> <i_m_ct_stereo_status>
1

> <i_f3d_flags>
0

> <s_epik_input>
W2NIXTFbY0hdYyhbTitdKD1PKVtPLV0pW2NIXVtjSF1jMVtOSF1jMm5bY0hdW2NIXWMobjIpW05IXWMzYyhDKD1PKVtPSF0pW2NIXVtjSF1bY0hdW2NIXTM=

> <s_epik_cmdline>
J2VwaWtfcHl0aG9uJywgJy1waHQnLCAnMC41JywgJy1waCcsICc3LjUnLCAnLW50JywgJy1tYScsICcyMDAnLCAnLWltYWUnLCAnPGluZmlsZS5tYWU+JywgJy1vbWFlJywgJzxvdXRmaWxlLm1hZT4n

> <r_lp_tautomer_probability>
1

> <r_epik_Ionization_Penalty>
  0.0091

> <r_epik_Ionization_Penalty_Charging>
  0.0004

> <r_epik_Ionization_Penalty_Neutral>
  0.0086

> <r_epik_State_Penalty>
 -0.0000

> <r_epik_Charging_Adjusted_Penalty>
0.000419299397976161

> <i_epik_Tot_Q>
-1

> <i_epik_Tot_abs_Q>
3

> <s_lp_Force_Field>
OPLS3e

> <r_lp_Energy>
40.951229

> <b_lp_Chiralities_Consistent>
1

> <s_lp_Variant>
sdf/inactives_sanitized.sdf:115-1

$$$$
sdf/inactives_sanitized.sdf:116
                    3D
 Schrodinger Suite 2020-1.
 63 67  0  0  1  0            999 V2000
   -7.1901    2.4478   -1.1429 C   0  0  0  0  0  0
   -6.4288    2.2029    0.1574 C   0  0  0  0  0  0
   -7.0136    2.3040    1.2352 O   0  0  0  0  0  0
   -5.0005    1.8710    0.0656 C   0  0  0  0  0  0
   -4.6492    0.5518   -0.0425 C   0  0  0  0  0  0
   -5.6230   -0.6387   -0.0824 C   0  0  0  0  0  0
   -3.2115    0.1969   -0.1259 C   0  0  0  0  0  0
   -2.7179   -1.1125   -0.2360 C   0  0  0  0  0  0
   -1.3933   -1.3931   -0.3067 N   0  0  0  0  0  0
   -0.5394   -0.3383   -0.2632 C   0  0  0  0  0  0
    0.8488   -0.5382   -0.3272 N   0  0  0  0  0  0
    1.6491   -1.6852   -0.4682 C   0  0  0  0  0  0
    3.0343   -1.5175   -0.4881 C   0  0  0  0  0  0
    3.8520   -2.6391   -0.6350 C   0  0  0  0  0  0
    3.2952   -3.9247   -0.7541 C   0  0  0  0  0  0
    1.8908   -3.9921   -0.7367 C   0  0  0  0  0  0
    1.0824   -2.9132   -0.5913 N   0  0  0  0  0  0
    4.0970   -5.0570   -0.9336 N   0  0  0  0  0  0
    5.3953   -5.1815   -0.2376 C   0  0  0  0  0  0
    6.3959   -6.1449   -0.9067 C   0  0  0  0  0  0
    5.7519   -7.5286   -1.0306 N   0  3  0  0  0  0
    4.4711   -7.4041   -1.8616 C   0  0  0  0  0  0
    3.5158   -6.3908   -1.1955 C   0  0  0  0  0  0
   -0.9241    0.9562   -0.1574 N   0  0  0  0  0  0
   -2.2597    1.2296   -0.0922 C   0  0  0  0  0  0
   -2.6976    2.5910    0.0133 N   0  0  0  0  0  0
   -1.6957    3.7069    0.0307 C   0  0  0  0  0  0
   -0.7690    3.7858   -1.2094 C   0  0  0  0  0  0
    0.6660    3.8601   -0.6667 C   0  0  0  0  0  0
    0.5282    4.3616    0.7717 C   0  0  0  0  0  0
   -0.7708    3.7250    1.2679 C   0  0  0  0  0  0
   -4.0189    2.9692    0.1024 C   0  0  0  0  0  0
   -4.3773    4.1495    0.2023 O   0  0  0  0  0  0
   -6.7614    3.2968   -1.6753 H   0  0  0  0  0  0
   -8.2407    2.6608   -0.9442 H   0  0  0  0  0  0
   -7.1323    1.5711   -1.7877 H   0  0  0  0  0  0
   -5.5062   -1.1897   -1.0161 H   0  0  0  0  0  0
   -6.6752   -0.3670   -0.0145 H   0  0  0  0  0  0
   -5.4257   -1.3143    0.7506 H   0  0  0  0  0  0
   -3.3705   -1.9718   -0.2707 H   0  0  0  0  0  0
    1.3753    0.3207   -0.2665 H   0  0  0  0  0  0
    3.4775   -0.5358   -0.4001 H   0  0  0  0  0  0
    4.9183   -2.4799   -0.6753 H   0  0  0  0  0  0
    1.3618   -4.9291   -0.8201 H   0  0  0  0  0  0
    5.8863   -4.2181   -0.1165 H   0  0  0  0  0  0
    5.1963   -5.5429    0.7730 H   0  0  0  0  0  0
    6.6854   -5.8342   -1.9123 H   0  0  0  0  0  0
    7.2925   -6.2947   -0.3041 H   0  0  0  0  0  0
    6.3923   -8.1726   -1.4734 H   0  0  0  0  0  0
    4.7733   -7.1065   -2.8672 H   0  0  0  0  0  0
    4.0483   -8.4086   -1.8977 H   0  0  0  0  0  0
    2.6471   -6.2961   -1.8474 H   0  0  0  0  0  0
    3.1690   -6.8104   -0.2493 H   0  0  0  0  0  0
   -2.1431    4.7019    0.0653 H   0  0  0  0  0  0
   -0.8800    2.9472   -1.8977 H   0  0  0  0  0  0
   -0.9910    4.6910   -1.7765 H   0  0  0  0  0  0
    1.1188    2.8674   -0.6700 H   0  0  0  0  0  0
    1.3033    4.5079   -1.2697 H   0  0  0  0  0  0
    1.3858    4.0928    1.3893 H   0  0  0  0  0  0
    0.4407    5.4494    0.7828 H   0  0  0  0  0  0
   -0.5620    2.7247    1.6455 H   0  0  0  0  0  0
   -1.2210    4.2643    2.1021 H   0  0  0  0  0  0
    5.5340   -7.8904   -0.1128 H   0  0  0  0  0  0
  1  2  1  0  0  0
  1 34  1  0  0  0
  1 35  1  0  0  0
  1 36  1  0  0  0
  2  3  2  0  0  0
  2  4  1  0  0  0
  4  5  2  0  0  0
  4 32  1  0  0  0
  5  6  1  0  0  0
  5  7  1  0  0  0
  6 37  1  0  0  0
  6 38  1  0  0  0
  6 39  1  0  0  0
  7  8  1  0  0  0
  7 25  2  0  0  0
  8  9  2  0  0  0
  8 40  1  0  0  0
  9 10  1  0  0  0
 10 11  1  0  0  0
 10 24  2  0  0  0
 11 12  1  0  0  0
 11 41  1  0  0  0
 12 13  2  0  0  0
 12 17  1  0  0  0
 13 14  1  0  0  0
 13 42  1  0  0  0
 14 15  2  0  0  0
 14 43  1  0  0  0
 15 16  1  0  0  0
 15 18  1  0  0  0
 16 17  2  0  0  0
 16 44  1  0  0  0
 18 19  1  0  0  0
 18 23  1  0  0  0
 19 20  1  0  0  0
 19 45  1  0  0  0
 19 46  1  0  0  0
 20 21  1  0  0  0
 20 47  1  0  0  0
 20 48  1  0  0  0
 21 22  1  0  0  0
 21 49  1  0  0  0
 21 63  1  0  0  0
 22 23  1  0  0  0
 22 50  1  0  0  0
 22 51  1  0  0  0
 23 52  1  0  0  0
 23 53  1  0  0  0
 24 25  1  0  0  0
 25 26  1  0  0  0
 26 27  1  0  0  0
 26 32  1  0  0  0
 27 28  1  0  0  0
 27 31  1  0  0  0
 27 54  1  0  0  0
 28 29  1  0  0  0
 28 55  1  0  0  0
 28 56  1  0  0  0
 29 30  1  0  0  0
 29 57  1  0  0  0
 29 58  1  0  0  0
 30 31  1  0  0  0
 30 59  1  0  0  0
 30 60  1  0  0  0
 31 61  1  0  0  0
 31 62  1  0  0  0
 32 33  2  0  0  0
M  CHG  1  21   1
M  END
> <chembl_id>
CHEMBL189963

> <chembl_pref_name>
PALBOCICLIB

> <s_m_source_file>
sdf/inactives_sanitized.sdf

> <i_m_source_file_index>
116

> <i_lp_mmshare_version>
49012

> <i_m_ct_stereo_status>
1

> <i_f3d_flags>
0

> <s_epik_input>
W0NIMl0xW0NIMl1bQ0gyXVtDSDJdW0NIXTFuKGMoPU8pYyhDKD1PKVtDSDNdKWMyW0NIM10pYyhjMjMpbmMobltjSF0zKVtOSF1jNFtjSF1bY0hdYyhbY0hdbjQpTjVbQ0gyXVtDSDJdW05IXVtDSDJdW0NIMl01

> <s_epik_cmdline>
J2VwaWtfcHl0aG9uJywgJy1waHQnLCAnMC41JywgJy1waCcsICc3LjUnLCAnLW50JywgJy1tYScsICcyMDAnLCAnLWltYWUnLCAnPGluZmlsZS5tYWU+JywgJy1vbWFlJywgJzxvdXRmaWxlLm1hZT4n

> <r_lp_tautomer_probability>
0.999949772211442

> <r_epik_Ionization_Penalty>
  0.1726

> <r_epik_Ionization_Penalty_Charging>
  0.0305

> <r_epik_Ionization_Penalty_Neutral>
  0.1422

> <r_epik_State_Penalty>
  0.2185

> <r_epik_Charging_Adjusted_Penalty>
0.24900549984952

> <i_epik_Tot_Q>
1

> <i_epik_Tot_abs_Q>
1

> <s_epik_Chemistry_Notes>
This compound has an imine and may undergo hydrolysis.

> <s_lp_Force_Field>
OPLS3e

> <r_lp_Energy>
79.046511

> <b_lp_Chiralities_Consistent>
1

> <s_lp_Variant>
sdf/inactives_sanitized.sdf:116-1

$$$$
sdf/inactives_sanitized.sdf:117
                    3D
 Schrodinger Suite 2020-1.
 56 60  0  0  1  0            999 V2000
   -2.1423    4.3350    3.4034 C   0  0  0  0  0  0
   -3.0652    3.4447    2.7866 O   0  0  0  0  0  0
   -4.4117    3.5100    3.1134 C   0  0  0  0  0  0
   -4.9273    4.4188    4.0551 C   0  0  0  0  0  0
   -6.2877    4.4475    4.3513 C   0  0  0  0  0  0
   -7.1585    3.5718    3.7117 C   0  0  0  0  0  0
   -6.6740    2.6625    2.7742 C   0  0  0  0  0  0
   -7.5516    1.8302    2.1620 F   0  0  0  0  0  0
   -5.3013    2.6215    2.4725 C   0  0  0  0  0  0
   -4.8008    1.6653    1.4661 C   0  0  0  0  0  0
   -4.7511    0.4277    1.8000 N   0  0  0  0  0  0
   -4.2518   -0.5497    0.8514 C   0  0  0  0  0  0
   -2.7578   -0.3801    0.6033 C   0  0  0  0  0  0
   -1.8028   -1.3325    0.9754 C   0  0  0  0  0  0
   -0.4741   -1.1739    0.7501 N   0  0  0  0  0  0
   -0.0948   -0.0311    0.1269 C   0  0  0  0  0  0
    1.2860    0.1251   -0.0683 N   0  0  0  0  0  0
    2.0208    1.1045   -0.7578 C   0  0  0  0  0  0
    3.2847    1.4378   -0.2794 C   0  0  0  0  0  0
    4.0540    2.3954   -0.9324 C   0  0  0  0  0  0
    3.5854    3.0389   -2.0876 C   0  0  0  0  0  0
    4.4632    4.0584   -2.7522 C   0  0  0  0  0  0
    4.4383    4.1361   -4.0014 O   0  0  0  0  0  0
    5.1922    4.7610   -2.0147 O   0  5  0  0  0  0
    2.3052    2.7063   -2.5874 C   0  0  0  0  0  0
    1.8389    3.3622   -3.7169 O   0  0  0  0  0  0
    0.5459    3.0675   -4.2334 C   0  0  0  0  0  0
    1.5447    1.7313   -1.9139 C   0  0  0  0  0  0
   -0.9465    0.9497   -0.2736 N   0  0  0  0  0  0
   -2.2790    0.7768   -0.0382 C   0  0  0  0  0  0
   -3.1930    1.8685   -0.5209 C   0  0  0  0  0  0
   -2.8605    2.5111   -1.7264 C   0  0  0  0  0  0
   -3.6617    3.5150   -2.2586 C   0  0  0  0  0  0
   -4.8213    3.8947   -1.5961 C   0  0  0  0  0  0
   -5.8251    5.1365   -2.2509 Cl  0  0  0  0  0  0
   -5.1718    3.2708   -0.4025 C   0  0  0  0  0  0
   -4.3776    2.2557    0.1611 C   0  0  0  0  0  0
   -1.1422    4.1372    3.0177 H   0  0  0  0  0  0
   -2.1125    4.1946    4.4849 H   0  0  0  0  0  0
   -2.3812    5.3760    3.1816 H   0  0  0  0  0  0
   -4.2850    5.1153    4.5717 H   0  0  0  0  0  0
   -6.6668    5.1513    5.0775 H   0  0  0  0  0  0
   -8.2133    3.5998    3.9426 H   0  0  0  0  0  0
   -4.4459   -1.5458    1.2508 H   0  0  0  0  0  0
   -4.8019   -0.5075   -0.0924 H   0  0  0  0  0  0
   -2.0961   -2.2461    1.4718 H   0  0  0  0  0  0
    1.8471   -0.6102    0.3363 H   0  0  0  0  0  0
    3.6789    0.9607    0.6066 H   0  0  0  0  0  0
    5.0301    2.6282   -0.5303 H   0  0  0  0  0  0
    0.3651    3.6790   -5.1172 H   0  0  0  0  0  0
   -0.2341    3.3002   -3.5077 H   0  0  0  0  0  0
    0.4611    2.0221   -4.5335 H   0  0  0  0  0  0
    0.5752    1.4473   -2.2908 H   0  0  0  0  0  0
   -1.9732    2.2274   -2.2732 H   0  0  0  0  0  0
   -3.3815    3.9912   -3.1869 H   0  0  0  0  0  0
   -6.0816    3.5905    0.0859 H   0  0  0  0  0  0
  1  2  1  0  0  0
  1 38  1  0  0  0
  1 39  1  0  0  0
  1 40  1  0  0  0
  2  3  1  0  0  0
  3  4  2  0  0  0
  3  9  1  0  0  0
  4  5  1  0  0  0
  4 41  1  0  0  0
  5  6  2  0  0  0
  5 42  1  0  0  0
  6  7  1  0  0  0
  6 43  1  0  0  0
  7  8  1  0  0  0
  7  9  2  0  0  0
  9 10  1  0  0  0
 10 11  2  0  0  0
 10 37  1  0  0  0
 11 12  1  0  0  0
 12 13  1  0  0  0
 12 44  1  0  0  0
 12 45  1  0  0  0
 13 14  2  0  0  0
 13 30  1  0  0  0
 14 15  1  0  0  0
 14 46  1  0  0  0
 15 16  2  0  0  0
 16 17  1  0  0  0
 16 29  1  0  0  0
 17 18  1  0  0  0
 17 47  1  0  0  0
 18 19  2  0  0  0
 18 28  1  0  0  0
 19 20  1  0  0  0
 19 48  1  0  0  0
 20 21  2  0  0  0
 20 49  1  0  0  0
 21 22  1  0  0  0
 21 25  1  0  0  0
 22 23  2  0  0  0
 22 24  1  0  0  0
 25 26  1  0  0  0
 25 28  2  0  0  0
 26 27  1  0  0  0
 27 50  1  0  0  0
 27 51  1  0  0  0
 27 52  1  0  0  0
 28 53  1  0  0  0
 29 30  2  0  0  0
 30 31  1  0  0  0
 31 32  2  0  0  0
 31 37  1  0  0  0
 32 33  1  0  0  0
 32 54  1  0  0  0
 33 34  2  0  0  0
 33 55  1  0  0  0
 34 35  1  0  0  0
 34 36  1  0  0  0
 36 37  2  0  0  0
 36 56  1  0  0  0
M  CHG  1  24  -1
M  END
> <chembl_id>
CHEMBL483158

> <chembl_pref_name>
ALISERTIB

> <s_m_source_file>
sdf/inactives_sanitized.sdf

> <i_m_source_file_index>
117

> <i_lp_mmshare_version>
49012

> <i_m_ct_stereo_status>
1

> <i_f3d_flags>
0

> <s_epik_input>
W0NIM11PYzFbY0hdW2NIXVtjSF1jKEYpYzFDKD1OW0NIMl0yKWMoW2NIXWMoQ2wpW2NIXVtjSF0zKWMzYyhjMjQpbmMobltjSF00KVtOSF1jNVtjSF1bY0hdYyhDKD1PKVtPSF0pYyhbY0hdNSlPW0NIM10=

> <s_epik_cmdline>
J2VwaWtfcHl0aG9uJywgJy1waHQnLCAnMC41JywgJy1waCcsICc3LjUnLCAnLW50JywgJy1tYScsICcyMDAnLCAnLWltYWUnLCAnPGluZmlsZS5tYWU+JywgJy1vbWFlJywgJzxvdXRmaWxlLm1hZT4n

> <r_lp_tautomer_probability>
0.999999987636

> <r_epik_Ionization_Penalty>
  0.0676

> <r_epik_Ionization_Penalty_Charging>
  0.0006

> <r_epik_Ionization_Penalty_Neutral>
  0.0670

> <r_epik_State_Penalty>
  0.0585

> <r_epik_Charging_Adjusted_Penalty>
0.0590592029871076

> <i_epik_Tot_Q>
-1

> <i_epik_Tot_abs_Q>
1

> <s_epik_Chemistry_Notes>
This compound has an imine and may undergo hydrolysis.

> <s_lp_Force_Field>
OPLS3e

> <r_lp_Energy>
79.518574

> <b_lp_Chiralities_Consistent>
1

> <s_lp_Variant>
sdf/inactives_sanitized.sdf:117-1

$$$$
sdf/inactives_sanitized.sdf:118
                    3D
 Schrodinger Suite 2020-1.
 49 52  0  0  1  0            999 V2000
   -0.8355    1.2474    0.0316 C   0  0  0  0  0  0
   -2.2252    1.2109    0.0498 C   0  0  0  0  0  0
   -2.9112    0.0003    0.0548 C   0  0  0  0  0  0
   -0.0905    0.0560    0.0153 C   0  0  0  0  0  0
   -0.7931   -1.1648    0.0231 C   0  0  0  0  0  0
   -2.2053   -1.2188    0.0436 C   0  0  0  0  0  0
   -2.8972   -2.5637    0.0566 C   0  0  0  0  0  0
   -1.9809   -3.6950    0.0607 C   0  0  0  0  0  0
   -0.6458   -3.5265    0.0348 C   0  0  0  0  0  0
   -0.0301   -2.3197    0.0159 O   0  0  0  0  0  0
    0.3393   -4.6198    0.0740 C   0  0  0  0  0  0
    0.5454   -5.3986    1.2266 C   0  0  0  0  0  0
    1.5059   -6.4126    1.2227 C   0  0  0  0  0  0
    2.2707   -6.6537    0.0827 C   0  0  0  0  0  0
    2.0803   -5.8781   -1.0591 C   0  0  0  0  0  0
   -0.3597   -5.1273    2.6779 Cl  0  0  0  0  0  0
    1.1225   -4.8645   -1.0605 C   0  0  0  0  0  0
   -4.2823    0.0663    0.0746 O   0  0  0  0  0  0
   -4.1190   -2.7046    0.0684 O   0  0  0  0  0  0
   -0.2381    2.4808    0.0335 O   0  0  0  0  0  0
    1.4583    0.0708   -0.0023 C   0  0  2  0  0  0
    2.1028    0.7209    1.2529 C   0  0  2  0  0  0
    3.6381    0.5982    1.2006 C   0  0  0  0  0  0
    4.1338    1.3448   -0.0581 N   0  3  2  0  0  0
    3.5728    0.6845   -1.3407 C   0  0  0  0  0  0
    2.0289    0.6962   -1.3030 C   0  0  0  0  0  0
    1.6225    0.1431    2.4510 O   0  0  0  0  0  0
    5.6748    1.3511   -0.0976 C   0  0  0  0  0  0
   -2.7817    2.1377    0.0614 H   0  0  0  0  0  0
   -2.3772   -4.6998    0.0919 H   0  0  0  0  0  0
    1.6636   -7.0129    2.1071 H   0  0  0  0  0  0
    3.0132   -7.4381    0.0864 H   0  0  0  0  0  0
    2.6746   -6.0617   -1.9421 H   0  0  0  0  0  0
    0.9875   -4.2686   -1.9521 H   0  0  0  0  0  0
   -4.6145    0.9665    0.0830 H   0  0  0  0  0  0
   -0.8736    3.2001    0.0533 H   0  0  0  0  0  0
    1.8031   -0.9630   -0.0151 H   0  0  0  0  0  0
    1.8407    1.7780    1.2961 H   0  0  0  0  0  0
    4.1266    1.0434    2.0692 H   0  0  0  0  0  0
    3.9698   -0.4357    1.0812 H   0  0  0  0  0  0
    3.9604    1.2525   -2.1879 H   0  0  0  0  0  0
    3.9724   -0.3308   -1.3779 H   0  0  0  0  0  0
    1.6814    0.1228   -2.1637 H   0  0  0  0  0  0
    1.6948    1.7247   -1.4346 H   0  0  0  0  0  0
    0.6674    0.2407    2.4744 H   0  0  0  0  0  0
    6.0197    0.3163   -0.1382 H   0  0  0  0  0  0
    6.0175    1.8536    0.8080 H   0  0  0  0  0  0
    5.9726    1.9105   -0.9853 H   0  0  0  0  0  0
    3.8023    2.2985   -0.0139 H   0  0  0  0  0  0
  1  2  2  0  0  0
  1  4  1  0  0  0
  1 20  1  0  0  0
  2  3  1  0  0  0
  2 29  1  0  0  0
  3  6  2  0  0  0
  3 18  1  0  0  0
  4  5  2  0  0  0
  4 21  1  0  0  0
  5 10  1  0  0  0
  5  6  1  0  0  0
  6  7  1  0  0  0
  7  8  1  0  0  0
  7 19  2  0  0  0
  8  9  2  0  0  0
  8 30  1  0  0  0
  9 10  1  0  0  0
  9 11  1  0  0  0
 11 17  1  0  0  0
 11 12  2  0  0  0
 12 16  1  0  0  0
 12 13  1  0  0  0
 13 14  2  0  0  0
 13 31  1  0  0  0
 14 15  1  0  0  0
 14 32  1  0  0  0
 15 17  2  0  0  0
 15 33  1  0  0  0
 17 34  1  0  0  0
 18 35  1  0  0  0
 20 36  1  0  0  0
 21 22  1  0  0  0
 21 26  1  0  0  0
 21 37  1  0  0  0
 22 23  1  0  0  0
 22 27  1  0  0  0
 22 38  1  0  0  0
 23 24  1  0  0  0
 23 39  1  0  0  0
 23 40  1  0  0  0
 24 25  1  0  0  0
 24 28  1  0  0  0
 24 49  1  0  0  0
 25 26  1  0  0  0
 25 41  1  0  0  0
 25 42  1  0  0  0
 26 43  1  0  0  0
 26 44  1  0  0  0
 27 45  1  0  0  0
 28 46  1  0  0  0
 28 47  1  0  0  0
 28 48  1  0  0  0
M  CHG  1  24   1
M  END
> <chembl_id>
CHEMBL422897

> <chembl_pref_name>
None

> <s_m_source_file>
sdf/inactives_sanitized.sdf

> <i_m_source_file_index>
118

> <i_lp_mmshare_version>
49012

> <i_m_ct_stereo_status>
1

> <i_f3d_flags>
0

> <s_epik_input>
W0NIMl0xW0NIMl1OKFtDSDNdKVtDSDJdW0NASF0oW09IXSlbQ0BIXTFjMmMoW09IXSlbY0hdYyhbT0hdKWMoYzIzKWMoPU8pW2NIXWMobzMpLWM0YyhDbClbY0hdW2NIXVtjSF1bY0hdNA==

> <s_epik_cmdline>
J2VwaWtfcHl0aG9uJywgJy1waHQnLCAnMC41JywgJy1waCcsICc3LjUnLCAnLW50JywgJy1tYScsICcyMDAnLCAnLWltYWUnLCAnPGluZmlsZS5tYWU+JywgJy1vbWFlJywgJzxvdXRmaWxlLm1hZT4n

> <r_lp_tautomer_probability>
1

> <r_epik_Ionization_Penalty>
  0.1547

> <r_epik_Ionization_Penalty_Charging>
  0.0446

> <r_epik_Ionization_Penalty_Neutral>
  0.1101

> <r_epik_State_Penalty>
 -0.0000

> <r_epik_Charging_Adjusted_Penalty>
0.0446182591366821

> <i_epik_Tot_Q>
1

> <i_epik_Tot_abs_Q>
1

> <s_lp_Force_Field>
OPLS3e

> <r_lp_Energy>
24.821909

> <b_lp_Chiralities_Consistent>
1

> <s_lp_Variant>
sdf/inactives_sanitized.sdf:118-1

$$$$
sdf/inactives_sanitized.sdf:119
                    3D
 Schrodinger Suite 2020-1.
 29 31  0  0  1  0            999 V2000
   -2.6301    2.4362   -0.0009 O   0  0  0  0  0  0
   -1.5562    3.3366   -0.0004 N   0  0  0  0  0  0
    0.7898    3.1917    0.0008 N   0  0  0  0  0  0
   -0.7160    1.2186    0.0021 C   0  0  0  0  0  0
    0.0127    0.0100    0.0044 C   0  0  0  0  0  0
   -2.1210    1.1713    0.0000 C   0  0  0  0  0  0
   -0.4516    2.6248    0.0010 C   0  0  0  0  0  0
    1.4918   -0.0016    0.0083 C   0  0  0  0  0  0
   -0.7134   -1.1889    0.0027 C   0  0  0  0  0  0
   -2.8484   -0.0225   -0.0006 C   0  0  0  0  0  0
   -2.1099   -1.2055    0.0003 C   0  0  0  0  0  0
    2.2036   -0.0027   -1.1961 C   0  0  0  0  0  0
    2.1975   -0.0024    1.2158 C   0  0  0  0  0  0
    3.6013   -0.0020   -1.1987 C   0  0  0  0  0  0
    3.5922   -0.0023    1.2203 C   0  0  0  0  0  0
    4.2939   -0.0016    0.0153 C   0  0  0  0  0  0
    4.3539   -0.0001   -2.5164 C   0  0  0  0  0  0
    1.6276    2.6278   -0.0000 H   0  0  0  0  0  0
    0.9122    4.1939   -0.0002 H   0  0  0  0  0  0
   -0.1830   -2.1304    0.0036 H   0  0  0  0  0  0
   -3.9281   -0.0300   -0.0020 H   0  0  0  0  0  0
   -2.6276   -2.1533   -0.0006 H   0  0  0  0  0  0
    1.6670   -0.0009   -2.1345 H   0  0  0  0  0  0
    1.6636   -0.0001    2.1553 H   0  0  0  0  0  0
    4.1291   -0.0015    2.1573 H   0  0  0  0  0  0
    5.3744    0.0001    0.0293 H   0  0  0  0  0  0
    5.4354    0.0005   -2.3747 H   0  0  0  0  0  0
    4.0830    0.8793   -3.1016 H   0  0  0  0  0  0
    4.0843   -0.8785   -3.1036 H   0  0  0  0  0  0
  1  2  1  0  0  0
  1  6  1  0  0  0
  2  7  2  0  0  0
  3  7  1  0  0  0
  3 18  1  0  0  0
  3 19  1  0  0  0
  4  5  1  0  0  0
  4  6  2  0  0  0
  4  7  1  0  0  0
  5  8  1  0  0  0
  5  9  2  0  0  0
  6 10  1  0  0  0
  8 12  2  0  0  0
  8 13  1  0  0  0
  9 11  1  0  0  0
  9 20  1  0  0  0
 10 11  2  0  0  0
 10 21  1  0  0  0
 11 22  1  0  0  0
 12 14  1  0  0  0
 12 23  1  0  0  0
 13 15  2  0  0  0
 13 24  1  0  0  0
 14 16  2  0  0  0
 14 17  1  0  0  0
 15 16  1  0  0  0
 15 25  1  0  0  0
 16 26  1  0  0  0
 17 27  1  0  0  0
 17 28  1  0  0  0
 17 29  1  0  0  0
M  END
> <chembl_id>
CHEMBL1980376

> <chembl_pref_name>
None

> <s_m_source_file>
sdf/inactives_sanitized.sdf

> <i_m_source_file_index>
119

> <i_lp_mmshare_version>
49012

> <i_m_ct_stereo_status>
1

> <i_f3d_flags>
0

> <s_epik_input>
W05IMl1jMW5vYyhjMTIpW2NIXVtjSF1bY0hdYzItYzNbY0hdYyhbQ0gzXSlbY0hdW2NIXVtjSF0z

> <s_epik_cmdline>
J2VwaWtfcHl0aG9uJywgJy1waHQnLCAnMC41JywgJy1waCcsICc3LjUnLCAnLW50JywgJy1tYScsICcyMDAnLCAnLWltYWUnLCAnPGluZmlsZS5tYWU+JywgJy1vbWFlJywgJzxvdXRmaWxlLm1hZT4n

> <r_lp_tautomer_probability>
1

> <r_epik_Ionization_Penalty>
  0.0000

> <r_epik_Ionization_Penalty_Charging>
  0.0000

> <r_epik_Ionization_Penalty_Neutral>
  0.0000

> <r_epik_State_Penalty>
 -0.0000

> <r_epik_Charging_Adjusted_Penalty>
0

> <i_epik_Tot_Q>
0

> <i_epik_Tot_abs_Q>
0

> <s_lp_Force_Field>
OPLS3e

> <r_lp_Energy>
19.129484

> <b_lp_Chiralities_Consistent>
1

> <s_lp_Variant>
sdf/inactives_sanitized.sdf:119-1

$$$$
sdf/inactives_sanitized.sdf:120
                    3D
 Schrodinger Suite 2020-1.
 48 52  0  0  1  0            999 V2000
   -1.8567   -7.2359   -1.4851 O   0  0  0  0  0  0
   -0.3164    2.5983    0.8382 O   0  0  0  0  0  0
    0.9784   -4.2999   -1.5817 N   0  0  0  0  0  0
    4.1947   -0.2418    0.5519 N   0  0  0  0  0  0
    0.1164    0.6265   -0.2506 N   0  0  0  0  0  0
   -1.8624    1.5735   -0.5024 N   0  0  0  0  0  0
   -2.9835    3.5245    0.4278 N   0  0  0  0  0  0
   -5.2056    2.9051   -1.1747 N   0  0  0  0  0  0
    1.7693   -3.2658   -1.0526 C   0  0  0  0  0  0
    1.9929   -0.9440   -0.2446 C   0  0  0  0  0  0
    0.1832   -6.4885   -2.2456 C   0  0  1  0  0  0
   -0.8263   -5.4921   -2.7329 C   0  0  2  0  0  0
    3.3729   -1.1939    0.0342 C   0  0  0  0  0  0
    1.2152   -2.0066   -0.7901 C   0  0  0  0  0  0
    1.4723    0.3611    0.0480 C   0  0  0  0  0  0
    1.4180   -5.6581   -1.8971 C   0  0  0  0  0  0
   -0.4161   -4.1919   -2.0167 C   0  0  0  0  0  0
    3.1207   -3.4774   -0.7633 C   0  0  0  0  0  0
    3.9182   -2.4695   -0.2321 C   0  0  0  0  0  0
   -0.5003   -7.1805   -1.0693 C   0  0  0  0  0  0
   -2.1719   -6.0847   -2.2710 C   0  0  0  0  0  0
    2.3539    1.3243    0.5650 C   0  0  0  0  0  0
    3.6799    0.9830    0.8014 C   0  0  0  0  0  0
   -0.6547    1.6796    0.0904 C   0  0  0  0  0  0
   -2.9677    2.4387   -0.4025 C   0  0  0  0  0  0
   -4.0828    2.1390   -1.1954 C   0  0  0  0  0  0
   -4.1053    4.2903    0.4505 C   0  0  0  0  0  0
   -5.2093    3.9821   -0.3467 C   0  0  0  0  0  0
   -0.3245   -0.0802   -0.8205 H   0  0  0  0  0  0
   -2.0007    0.7807   -1.1114 H   0  0  0  0  0  0
    0.4421   -7.2236   -3.0098 H   0  0  0  0  0  0
   -0.7748   -5.4070   -3.8197 H   0  0  0  0  0  0
    0.1709   -1.8285   -0.9986 H   0  0  0  0  0  0
    2.1151   -5.6269   -2.7359 H   0  0  0  0  0  0
    1.9370   -6.0961   -1.0434 H   0  0  0  0  0  0
   -1.0406   -4.0023   -1.1426 H   0  0  0  0  0  0
   -0.5155   -3.3605   -2.7156 H   0  0  0  0  0  0
    3.5780   -4.4375   -0.9519 H   0  0  0  0  0  0
    4.9610   -2.6607   -0.0211 H   0  0  0  0  0  0
   -0.4125   -6.6316   -0.1297 H   0  0  0  0  0  0
   -0.1075   -8.1800   -0.8808 H   0  0  0  0  0  0
   -2.7687   -6.4053   -3.1257 H   0  0  0  0  0  0
   -2.7436   -5.3779   -1.6679 H   0  0  0  0  0  0
    2.0493    2.3364    0.7768 H   0  0  0  0  0  0
    4.3675    1.7150    1.1991 H   0  0  0  0  0  0
   -4.0953    1.2862   -1.8588 H   0  0  0  0  0  0
   -4.1070    5.1457    1.1099 H   0  0  0  0  0  0
   -6.1019    4.5897   -0.3304 H   0  0  0  0  0  0
  1 20  1  0  0  0
  1 21  1  0  0  0
  2 24  2  0  0  0
  3  9  1  0  0  0
  3 16  1  0  0  0
  3 17  1  0  0  0
  4 13  2  0  0  0
  4 23  1  0  0  0
  5 15  1  0  0  0
  5 24  1  0  0  0
  5 29  1  0  0  0
  6 24  1  0  0  0
  6 25  1  0  0  0
  6 30  1  0  0  0
  7 25  2  0  0  0
  7 27  1  0  0  0
  8 26  2  0  0  0
  8 28  1  0  0  0
  9 14  2  0  0  0
  9 18  1  0  0  0
 10 13  1  0  0  0
 10 14  1  0  0  0
 10 15  2  0  0  0
 11 12  1  0  0  0
 11 16  1  0  0  0
 11 20  1  0  0  0
 11 31  1  0  0  0
 12 17  1  0  0  0
 12 21  1  0  0  0
 12 32  1  0  0  0
 13 19  1  0  0  0
 14 33  1  0  0  0
 15 22  1  0  0  0
 16 34  1  0  0  0
 16 35  1  0  0  0
 17 36  1  0  0  0
 17 37  1  0  0  0
 18 19  2  0  0  0
 18 38  1  0  0  0
 19 39  1  0  0  0
 20 40  1  0  0  0
 20 41  1  0  0  0
 21 42  1  0  0  0
 21 43  1  0  0  0
 22 23  2  0  0  0
 22 44  1  0  0  0
 23 45  1  0  0  0
 25 26  1  0  0  0
 26 46  1  0  0  0
 27 28  2  0  0  0
 27 47  1  0  0  0
 28 48  1  0  0  0
M  END
> <chembl_id>
CHEMBL2002599

> <chembl_pref_name>
None

> <s_m_source_file>
sdf/inactives_sanitized.sdf

> <i_m_source_file_index>
120

> <i_lp_mmshare_version>
49012

> <i_m_ct_stereo_status>
1

> <i_f3d_flags>
0

> <s_epik_input>
W0NIMl0xT1tDSDJdW0NASF0oW0NASF0xMilbQ0gyXU4oW0NIMl0yKWMoW2NIXTMpW2NIXVtjSF1jKGMzNCluW2NIXVtjSF1jNFtOSF1DKD1PKVtOSF1jNW5bY0hdW2NIXW5bY0hdNQ==

> <s_epik_cmdline>
J2VwaWtfcHl0aG9uJywgJy1waHQnLCAnMC41JywgJy1waCcsICc3LjUnLCAnLW50JywgJy1tYScsICcyMDAnLCAnLWltYWUnLCAnPGluZmlsZS5tYWU+JywgJy1vbWFlJywgJzxvdXRmaWxlLm1hZT4n

> <r_lp_tautomer_probability>
1

> <r_epik_Ionization_Penalty>
  0.0420

> <r_epik_Ionization_Penalty_Charging>
  0.0000

> <r_epik_Ionization_Penalty_Neutral>
  0.0420

> <r_epik_State_Penalty>
  0.0354

> <r_epik_Charging_Adjusted_Penalty>
0.0354411986056916

> <i_epik_Tot_Q>
0

> <i_epik_Tot_abs_Q>
0

> <s_lp_Force_Field>
OPLS3e

> <r_lp_Energy>
34.762667

> <b_lp_Chiralities_Consistent>
1

> <s_lp_Variant>
sdf/inactives_sanitized.sdf:120-1

$$$$
sdf/inactives_sanitized.sdf:121
                    3D
 Schrodinger Suite 2020-1.
 45 49  0  0  1  0            999 V2000
   -4.9429   -1.0300   -0.3317 N   0  0  0  0  0  0
   -4.2812    0.0553    0.0853 C   0  0  0  0  0  0
   -4.8784    1.0701    0.4424 O   0  0  0  0  0  0
   -2.7696   -0.0089    0.0717 C   0  0  0  0  0  0
   -2.0248    1.1772    0.0706 C   0  0  0  0  0  0
   -0.6332    1.1401    0.0570 C   0  0  0  0  0  0
    0.0448   -0.0836    0.0468 C   0  0  0  0  0  0
   -0.6963   -1.2701    0.0554 C   0  0  0  0  0  0
   -2.0880   -1.2350    0.0690 C   0  0  0  0  0  0
    1.5438   -0.1216    0.0271 C   0  0  0  0  0  0
    2.3282    0.9304    0.0650 N   0  0  0  0  0  0
    3.5833    0.4918    0.0140 C   0  0  0  0  0  0
    3.6111   -0.9148   -0.0256 C   0  0  0  0  0  0
    2.2879   -1.2681   -0.0356 N   0  0  0  0  0  0
    4.6988   -1.9333   -0.0410 C   0  0  0  0  0  0
    4.6552   -2.9979   -0.9642 C   0  0  0  0  0  0
    5.6612   -3.9736   -0.9894 C   0  0  0  0  0  0
    6.7023   -3.8469   -0.0765 C   0  0  0  0  0  0
    7.7696   -4.6649    0.1174 O   0  0  0  0  0  0
    8.6014   -3.9891    1.0224 C   0  0  0  0  0  0
    7.8466   -2.9647    1.6128 O   0  0  0  0  0  0
    6.7481   -2.8223    0.8259 C   0  0  0  0  0  0
    5.7578   -1.8472    0.8792 C   0  0  0  0  0  0
    4.7194    1.4779   -0.0151 C   0  0  0  0  0  0
    4.5437    2.8349    0.2991 C   0  0  0  0  0  0
    5.6426    3.6943    0.2371 C   0  0  0  0  0  0
    6.8885    3.1917   -0.1394 C   0  0  0  0  0  0
    6.9910    1.8350   -0.4455 C   0  0  0  0  0  0
    5.9329    0.9871   -0.3906 N   0  0  0  0  0  0
   -5.9522   -1.0302   -0.3501 H   0  0  0  0  0  0
   -4.4388   -1.8500   -0.6347 H   0  0  0  0  0  0
   -2.5164    2.1400    0.0758 H   0  0  0  0  0  0
   -0.0865    2.0720    0.0528 H   0  0  0  0  0  0
   -0.2010   -2.2300    0.0525 H   0  0  0  0  0  0
   -2.6241   -2.1731    0.0819 H   0  0  0  0  0  0
    1.9259   -2.2104   -0.0647 H   0  0  0  0  0  0
    3.8386   -3.0701   -1.6680 H   0  0  0  0  0  0
    5.6190   -4.7891   -1.6961 H   0  0  0  0  0  0
    8.9800   -4.6741    1.7817 H   0  0  0  0  0  0
    9.4392   -3.5489    0.4782 H   0  0  0  0  0  0
    5.7967   -1.0479    1.6050 H   0  0  0  0  0  0
    3.5779    3.2220    0.5894 H   0  0  0  0  0  0
    5.5281    4.7408    0.4784 H   0  0  0  0  0  0
    7.7523    3.8378   -0.1935 H   0  0  0  0  0  0
    7.9367    1.4066   -0.7433 H   0  0  0  0  0  0
  1  2  1  0  0  0
  1 30  1  0  0  0
  1 31  1  0  0  0
  2  3  2  0  0  0
  2  4  1  0  0  0
  4  5  2  0  0  0
  4  9  1  0  0  0
  5  6  1  0  0  0
  5 32  1  0  0  0
  6  7  2  0  0  0
  6 33  1  0  0  0
  7  8  1  0  0  0
  7 10  1  0  0  0
  8  9  2  0  0  0
  8 34  1  0  0  0
  9 35  1  0  0  0
 10 11  2  0  0  0
 10 14  1  0  0  0
 11 12  1  0  0  0
 12 13  2  0  0  0
 12 24  1  0  0  0
 13 14  1  0  0  0
 13 15  1  0  0  0
 14 36  1  0  0  0
 15 16  2  0  0  0
 15 23  1  0  0  0
 16 17  1  0  0  0
 16 37  1  0  0  0
 17 18  2  0  0  0
 17 38  1  0  0  0
 18 19  1  0  0  0
 18 22  1  0  0  0
 19 20  1  0  0  0
 20 21  1  0  0  0
 20 39  1  0  0  0
 20 40  1  0  0  0
 21 22  1  0  0  0
 22 23  2  0  0  0
 23 41  1  0  0  0
 24 25  2  0  0  0
 24 29  1  0  0  0
 25 26  1  0  0  0
 25 42  1  0  0  0
 26 27  2  0  0  0
 26 43  1  0  0  0
 27 28  1  0  0  0
 27 44  1  0  0  0
 28 29  2  0  0  0
 28 45  1  0  0  0
M  END
> <chembl_id>
CHEMBL440084

> <chembl_pref_name>
SB-431542

> <s_m_source_file>
sdf/inactives_sanitized.sdf

> <i_m_source_file_index>
121

> <i_lp_mmshare_version>
49012

> <i_m_ct_stereo_status>
1

> <i_f3d_flags>
0

> <s_epik_input>
W05IMl1DKD1PKWMxW2NIXVtjSF1jKFtjSF1bY0hdMSktYzJuYygtYzNbY0hdW2NIXVtjSF1bY0hdbjMpYyhbbkhdMiktYyhbY0hdW2NIXTQpW2NIXWMoYzQ1KU9bQ0gyXU81

> <s_epik_cmdline>
J2VwaWtfcHl0aG9uJywgJy1waHQnLCAnMC41JywgJy1waCcsICc3LjUnLCAnLW50JywgJy1tYScsICcyMDAnLCAnLWltYWUnLCAnPGluZmlsZS5tYWU+JywgJy1vbWFlJywgJzxvdXRmaWxlLm1hZT4n

> <r_lp_tautomer_probability>
1

> <r_epik_Ionization_Penalty>
  0.0014

> <r_epik_Ionization_Penalty_Charging>
  0.0012

> <r_epik_Ionization_Penalty_Neutral>
  0.0002

> <r_epik_State_Penalty>
 -0.0000

> <r_epik_Charging_Adjusted_Penalty>
0.00115711474140764

> <i_epik_Tot_Q>
0

> <i_epik_Tot_abs_Q>
0

> <s_epik_Chemistry_Notes>
This compound contains an acetal/aminal-like group ( X-CH(R)-Y where X, Y are N, S, or O) that may be acid/base labile, releasing an aldehyde.

> <s_lp_Force_Field>
OPLS3e

> <r_lp_Energy>
48.792163

> <b_lp_Chiralities_Consistent>
1

> <s_lp_Variant>
sdf/inactives_sanitized.sdf:121-1

$$$$
sdf/inactives_sanitized.sdf:122
                    3D
 Schrodinger Suite 2020-1.
 17 18  0  0  1  0            999 V2000
   12.3929   -5.5530   -3.1317 C   0  0  0  0  0  0
   11.8304   -5.2282   -4.3675 C   0  0  0  0  0  0
   10.6147   -4.5423   -4.4383 C   0  0  0  0  0  0
   11.7472   -5.1963   -1.9483 C   0  0  0  0  0  0
   10.5312   -4.5104   -2.0119 C   0  0  0  0  0  0
    9.9554   -4.1780   -3.2535 C   0  0  0  0  0  0
    8.7261   -3.4845   -3.3203 N   0  0  0  0  0  0
    8.1212   -3.1502   -2.2378 C   0  0  0  0  0  0
    8.6388   -3.4497   -1.0038 N   0  0  0  0  0  0
    9.8020   -4.1072   -0.7431 C   0  0  0  0  0  0
   10.1790   -4.3269    0.4065 O   0  0  0  0  0  0
    9.9645   -4.1660   -5.9994 Cl  0  0  0  0  0  0
   13.3331   -6.0833   -3.0920 H   0  0  0  0  0  0
   12.3436   -5.5118   -5.2751 H   0  0  0  0  0  0
   12.1947   -5.4545   -0.9985 H   0  0  0  0  0  0
    7.1753   -2.6168   -2.2626 H   0  0  0  0  0  0
    8.1181   -3.1613   -0.1889 H   0  0  0  0  0  0
  1  2  2  0  0  0
  1  4  1  0  0  0
  1 13  1  0  0  0
  2  3  1  0  0  0
  2 14  1  0  0  0
  3  6  2  0  0  0
  3 12  1  0  0  0
  4  5  2  0  0  0
  4 15  1  0  0  0
  5 10  1  0  0  0
  5  6  1  0  0  0
  6  7  1  0  0  0
  7  8  2  0  0  0
  8  9  1  0  0  0
  8 16  1  0  0  0
  9 10  1  0  0  0
  9 17  1  0  0  0
 10 11  2  0  0  0
M  END
> <chembl_id>
CHEMBL1949855

> <chembl_pref_name>
None

> <s_m_source_file>
sdf/inactives_sanitized.sdf

> <i_m_source_file_index>
122

> <i_lp_mmshare_version>
49012

> <i_m_ct_stereo_status>
1

> <i_f3d_flags>
0

> <s_epik_input>
W2NIXTFbY0hdW2NIXWMoQ2wpYyhjMTIpbltjSF1bbkhdYzI9Tw==

> <s_epik_cmdline>
J2VwaWtfcHl0aG9uJywgJy1waHQnLCAnMC41JywgJy1waCcsICc3LjUnLCAnLW50JywgJy1tYScsICcyMDAnLCAnLWltYWUnLCAnPGluZmlsZS5tYWU+JywgJy1vbWFlJywgJzxvdXRmaWxlLm1hZT4n

> <r_lp_tautomer_probability>
0.883938

> <r_epik_Ionization_Penalty>
  0.0581

> <r_epik_Ionization_Penalty_Charging>
  0.0581

> <r_epik_Ionization_Penalty_Neutral>
  0.0000

> <r_epik_State_Penalty>
  0.1147

> <r_epik_Charging_Adjusted_Penalty>
0.1728224328003

> <i_epik_Tot_Q>
0

> <i_epik_Tot_abs_Q>
0

> <s_lp_Force_Field>
OPLS3e

> <r_lp_Energy>
12.099795

> <b_lp_Chiralities_Consistent>
1

> <s_lp_Variant>
sdf/inactives_sanitized.sdf:122-1

$$$$
sdf/inactives_sanitized.sdf:123
                    3D
 Schrodinger Suite 2020-1.
 41 44  0  0  1  0            999 V2000
   -4.5463    5.1472    0.8561 F   0  0  0  0  0  0
   -0.3340    2.6769    0.1442 O   0  0  0  0  0  0
    9.0507    1.7832   -0.5454 N   0  0  0  0  0  0
   10.2429    1.1730   -0.4143 N   0  0  0  0  0  0
    0.1186    0.4428   -0.0636 N   0  0  0  0  0  0
   -1.9871    1.1019   -0.0551 N   0  0  0  0  0  0
    5.8075    0.0034    0.0283 C   0  0  0  0  0  0
    7.9984    0.9281   -0.2827 C   0  0  0  0  0  0
    8.5980   -0.3116    0.0373 C   0  0  0  0  0  0
    4.3223    0.1392    0.0251 C   0  0  0  0  0  0
    6.6118    1.1085   -0.2932 C   0  0  0  0  0  0
    6.4001   -1.2262    0.3482 C   0  0  0  0  0  0
    7.7829   -1.4037    0.3581 C   0  0  0  0  0  0
    9.9992   -0.0655   -0.0709 C   0  0  0  0  0  0
    1.5244    0.4029   -0.0064 C   0  0  0  0  0  0
    3.5161   -0.8633   -0.5265 C   0  0  0  0  0  0
    3.7073    1.2709    0.5739 C   0  0  0  0  0  0
    2.1301   -0.7362   -0.5375 C   0  0  0  0  0  0
    2.3216    1.4059    0.5642 C   0  0  0  0  0  0
   -0.7035    1.5080    0.0283 C   0  0  0  0  0  0
   -3.1711    1.8625   -0.0038 C   0  0  0  0  0  0
   -3.2499    3.1994    0.4259 C   0  0  0  0  0  0
   -4.4781    3.8617    0.4425 C   0  0  0  0  0  0
   -4.3431    1.2061   -0.3955 C   0  0  0  0  0  0
   -5.6364    3.1998    0.0378 C   0  0  0  0  0  0
   -5.5692    1.8715   -0.3787 C   0  0  0  0  0  0
    9.0043    2.7569   -0.8088 H   0  0  0  0  0  0
   -0.3175   -0.4451   -0.2638 H   0  0  0  0  0  0
   -2.1336    0.1166   -0.2170 H   0  0  0  0  0  0
    6.1751    2.0632   -0.5479 H   0  0  0  0  0  0
    5.7760   -2.0711    0.6019 H   0  0  0  0  0  0
    8.2110   -2.3633    0.6080 H   0  0  0  0  0  0
   10.8071   -0.7628    0.0940 H   0  0  0  0  0  0
    3.9625   -1.7470   -0.9590 H   0  0  0  0  0  0
    4.3041    2.0530    1.0207 H   0  0  0  0  0  0
    1.5331   -1.5253   -0.9723 H   0  0  0  0  0  0
    1.8939    2.2871    1.0162 H   0  0  0  0  0  0
   -2.3824    3.7442    0.7619 H   0  0  0  0  0  0
   -4.3111    0.1761   -0.7217 H   0  0  0  0  0  0
   -6.5861    3.7143    0.0511 H   0  0  0  0  0  0
   -6.4670    1.3571   -0.6883 H   0  0  0  0  0  0
  1 23  1  0  0  0
  2 20  2  0  0  0
  3  4  1  0  0  0
  3  8  1  0  0  0
  3 27  1  0  0  0
  4 14  2  0  0  0
  5 15  1  0  0  0
  5 20  1  0  0  0
  5 28  1  0  0  0
  6 20  1  0  0  0
  6 21  1  0  0  0
  6 29  1  0  0  0
  7 10  1  0  0  0
  7 11  2  0  0  0
  7 12  1  0  0  0
  8  9  2  0  0  0
  8 11  1  0  0  0
  9 13  1  0  0  0
  9 14  1  0  0  0
 10 16  2  0  0  0
 10 17  1  0  0  0
 11 30  1  0  0  0
 12 13  2  0  0  0
 12 31  1  0  0  0
 13 32  1  0  0  0
 14 33  1  0  0  0
 15 18  2  0  0  0
 15 19  1  0  0  0
 16 18  1  0  0  0
 16 34  1  0  0  0
 17 19  2  0  0  0
 17 35  1  0  0  0
 18 36  1  0  0  0
 19 37  1  0  0  0
 21 22  2  0  0  0
 21 24  1  0  0  0
 22 23  1  0  0  0
 22 38  1  0  0  0
 23 25  2  0  0  0
 24 26  2  0  0  0
 24 39  1  0  0  0
 25 26  1  0  0  0
 25 40  1  0  0  0
 26 41  1  0  0  0
M  END
> <chembl_id>
CHEMBL1969942

> <chembl_pref_name>
None

> <s_m_source_file>
sdf/inactives_sanitized.sdf

> <i_m_source_file_index>
123

> <i_lp_mmshare_version>
49012

> <i_m_ct_stereo_status>
1

> <i_f3d_flags>
0

> <s_epik_input>
W2NIXTFbY0hdW2NIXWMoRilbY0hdYzFbTkhdQyg9TylbTkhdYyhbY0hdW2NIXTIpW2NIXVtjSF1jMi1jKFtjSF0zKVtjSF1bY0hdYyhjMzQpW2NIXW5bbkhdNA==

> <s_epik_cmdline>
J2VwaWtfcHl0aG9uJywgJy1waHQnLCAnMC41JywgJy1waCcsICc3LjUnLCAnLW50JywgJy1tYScsICcyMDAnLCAnLWltYWUnLCAnPGluZmlsZS5tYWU+JywgJy1vbWFlJywgJzxvdXRmaWxlLm1hZT4n

> <r_lp_tautomer_probability>
1

> <r_epik_Ionization_Penalty>
  0.0000

> <r_epik_Ionization_Penalty_Charging>
  0.0000

> <r_epik_Ionization_Penalty_Neutral>
  0.0000

> <r_epik_State_Penalty>
 -0.0000

> <r_epik_Charging_Adjusted_Penalty>
0

> <i_epik_Tot_Q>
0

> <i_epik_Tot_abs_Q>
0

> <s_lp_Force_Field>
OPLS3e

> <r_lp_Energy>
40.296413

> <b_lp_Chiralities_Consistent>
1

> <s_lp_Variant>
sdf/inactives_sanitized.sdf:123-1

$$$$
sdf/inactives_sanitized.sdf:124
                    3D
 Schrodinger Suite 2020-1.
 44 46  0  0  1  0            999 V2000
   -2.8917   -1.0555   -0.0409 S   0  0  0  0  0  0
   -0.4467    1.8818   -0.8137 O   0  0  0  0  0  0
    1.3173   -1.0322   -4.9170 O   0  0  0  0  0  0
   -4.5254    0.9198    0.0087 N   0  0  0  0  0  0
   -0.0195   -0.1467    0.1224 N   0  0  0  0  0  0
   -8.0342   -2.8548    0.3872 N   0  0  0  0  0  0
   -2.2510    0.5722   -0.1194 C   0  0  0  0  0  0
   -4.4948   -0.3911    0.0541 C   0  0  0  0  0  0
   -3.3293    1.4721   -0.0948 C   0  0  0  0  0  0
   -0.8416    0.8367   -0.2959 C   0  0  0  0  0  0
   -5.7168   -1.2573    0.1697 C   0  0  0  0  0  0
    1.4466   -0.1410    0.0289 C   0  0  2  0  0  0
    2.0104   -0.0095   -1.3929 C   0  0  0  0  0  0
   -6.9949   -0.6776    0.2270 C   0  0  0  0  0  0
   -5.6289   -2.6578    0.2245 C   0  0  0  0  0  0
    1.8845   -0.4713   -3.7890 C   0  0  0  0  0  0
    1.3751   -0.6136   -2.4869 C   0  0  0  0  0  0
   -3.3285    2.9884   -0.1592 C   0  0  0  0  0  0
    3.1656    0.7477   -1.6108 C   0  0  0  0  0  0
    3.0425    0.2863   -3.9768 C   0  0  0  0  0  0
    0.1241   -1.7973   -4.7851 C   0  0  0  0  0  0
   -8.1160   -1.5024    0.3347 C   0  0  0  0  0  0
   -6.7991   -3.4119    0.3315 C   0  0  0  0  0  0
    3.6810    0.8934   -2.8969 C   0  0  0  0  0  0
    2.0241   -1.3851    0.7243 C   0  0  0  0  0  0
   -0.4142   -0.8583    0.7197 H   0  0  0  0  0  0
    1.7785    0.7273    0.6033 H   0  0  0  0  0  0
   -7.1258    0.3941    0.1892 H   0  0  0  0  0  0
   -4.6775   -3.1666    0.1859 H   0  0  0  0  0  0
    0.4826   -1.1942   -2.3100 H   0  0  0  0  0  0
   -2.3406    3.4192   -0.0009 H   0  0  0  0  0  0
   -3.9752    3.4306    0.6000 H   0  0  0  0  0  0
   -3.6796    3.3478   -1.1269 H   0  0  0  0  0  0
    3.6678    1.2264   -0.7825 H   0  0  0  0  0  0
    3.4496    0.4075   -4.9701 H   0  0  0  0  0  0
   -0.1858   -2.1525   -5.7677 H   0  0  0  0  0  0
   -0.6921   -1.1985   -4.3780 H   0  0  0  0  0  0
    0.2776   -2.6721   -4.1513 H   0  0  0  0  0  0
   -9.1083   -1.0784    0.3811 H   0  0  0  0  0  0
   -6.7567   -4.4904    0.3748 H   0  0  0  0  0  0
    4.5743    1.4787   -3.0575 H   0  0  0  0  0  0
    3.1137   -1.3480    0.7610 H   0  0  0  0  0  0
    1.7402   -2.3012    0.2045 H   0  0  0  0  0  0
    1.6691   -1.4661    1.7525 H   0  0  0  0  0  0
  1  7  1  0  0  0
  1  8  1  0  0  0
  2 10  2  0  0  0
  3 16  1  0  0  0
  3 21  1  0  0  0
  4  8  2  0  0  0
  4  9  1  0  0  0
  5 10  1  0  0  0
  5 12  1  0  0  0
  5 26  1  0  0  0
  6 22  2  0  0  0
  6 23  1  0  0  0
  7  9  2  0  0  0
  7 10  1  0  0  0
  8 11  1  0  0  0
  9 18  1  0  0  0
 11 14  2  0  0  0
 11 15  1  0  0  0
 12 13  1  0  0  0
 12 25  1  0  0  0
 12 27  1  0  0  0
 13 17  1  0  0  0
 13 19  2  0  0  0
 14 22  1  0  0  0
 14 28  1  0  0  0
 15 23  2  0  0  0
 15 29  1  0  0  0
 16 17  2  0  0  0
 16 20  1  0  0  0
 17 30  1  0  0  0
 18 31  1  0  0  0
 18 32  1  0  0  0
 18 33  1  0  0  0
 19 24  1  0  0  0
 19 34  1  0  0  0
 20 24  2  0  0  0
 20 35  1  0  0  0
 21 36  1  0  0  0
 21 37  1  0  0  0
 21 38  1  0  0  0
 22 39  1  0  0  0
 23 40  1  0  0  0
 24 41  1  0  0  0
 25 42  1  0  0  0
 25 43  1  0  0  0
 25 44  1  0  0  0
M  END
> <chembl_id>
CHEMBL1978567

> <chembl_pref_name>
None

> <s_m_source_file>
sdf/inactives_sanitized.sdf

> <i_m_source_file_index>
124

> <i_lp_mmshare_version>
49012

> <i_m_ct_stereo_status>
1

> <i_f3d_flags>
0

> <s_epik_input>
W2NIXTFbY0hdbltjSF1bY0hdYzEtYyhuYzJbQ0gzXSlzYzJDKD1PKVtOSF1bQ0BASF0oW0NIM10pYzNbY0hdYyhPW0NIM10pW2NIXVtjSF1bY0hdMw==

> <s_epik_cmdline>
J2VwaWtfcHl0aG9uJywgJy1waHQnLCAnMC41JywgJy1waCcsICc3LjUnLCAnLW50JywgJy1tYScsICcyMDAnLCAnLWltYWUnLCAnPGluZmlsZS5tYWU+JywgJy1vbWFlJywgJzxvdXRmaWxlLm1hZT4n

> <r_lp_tautomer_probability>
1

> <r_epik_Ionization_Penalty>
  0.0001

> <r_epik_Ionization_Penalty_Charging>
  0.0000

> <r_epik_Ionization_Penalty_Neutral>
  0.0001

> <r_epik_State_Penalty>
 -0.0000

> <r_epik_Charging_Adjusted_Penalty>
0

> <i_epik_Tot_Q>
0

> <i_epik_Tot_abs_Q>
0

> <s_lp_Force_Field>
OPLS3e

> <r_lp_Energy>
32.748773

> <b_lp_Chiralities_Consistent>
1

> <s_lp_Variant>
sdf/inactives_sanitized.sdf:124-1

$$$$
sdf/inactives_sanitized.sdf:125
                    3D
 Schrodinger Suite 2020-1.
 19 20  0  0  1  0            999 V2000
   -2.1637    1.2018   -0.0000 C   0  0  0  0  0  0
   -0.7708    1.2146   -0.0000 C   0  0  0  0  0  0
   -0.0025    0.0359    0.0000 C   0  0  0  0  0  0
   -2.8753    0.0056    0.0000 C   0  0  0  0  0  0
   -2.1581   -1.1974    0.0000 C   0  0  0  0  0  0
   -0.7382   -1.1677    0.0000 C   0  0  0  0  0  0
   -0.3654   -2.5018    0.0000 N   0  0  0  0  0  0
   -1.4210   -3.3342    0.0000 N   0  0  0  0  0  0
   -2.4907   -2.5846    0.0000 C   0  0  0  0  0  0
    1.5132    0.0609    0.0000 C   0  0  0  0  0  0
    2.1110    1.2576    0.0000 N   0  0  0  0  0  0
    2.1745   -0.9762    0.0000 O   0  0  0  0  0  0
   -2.7013    2.1389   -0.0000 H   0  0  0  0  0  0
   -0.2895    2.1818   -0.0000 H   0  0  0  0  0  0
   -3.9553    0.0098    0.0000 H   0  0  0  0  0  0
    0.5740   -2.8730    0.0000 H   0  0  0  0  0  0
   -3.4758   -3.0274    0.0000 H   0  0  0  0  0  0
    1.5620    2.1044    0.0000 H   0  0  0  0  0  0
    3.1187    1.3183   -0.0000 H   0  0  0  0  0  0
  1  2  2  0  0  0
  1  4  1  0  0  0
  1 13  1  0  0  0
  2  3  1  0  0  0
  2 14  1  0  0  0
  3  6  2  0  0  0
  3 10  1  0  0  0
  4  5  2  0  0  0
  4 15  1  0  0  0
  5  9  1  0  0  0
  5  6  1  0  0  0
  6  7  1  0  0  0
  7  8  1  0  0  0
  7 16  1  0  0  0
  8  9  2  0  0  0
  9 17  1  0  0  0
 10 11  1  0  0  0
 10 12  2  0  0  0
 11 18  1  0  0  0
 11 19  1  0  0  0
M  END
> <chembl_id>
CHEMBL451401

> <chembl_pref_name>
None

> <s_m_source_file>
sdf/inactives_sanitized.sdf

> <i_m_source_file_index>
125

> <i_lp_mmshare_version>
49012

> <i_m_ct_stereo_status>
1

> <i_f3d_flags>
0

> <s_epik_input>
W2NIXTFbY0hdW2NIXWMoQyg9TylbTkgyXSljKGMxMilbbkhdbltjSF0y

> <s_epik_cmdline>
J2VwaWtfcHl0aG9uJywgJy1waHQnLCAnMC41JywgJy1waCcsICc3LjUnLCAnLW50JywgJy1tYScsICcyMDAnLCAnLWltYWUnLCAnPGluZmlsZS5tYWU+JywgJy1vbWFlJywgJzxvdXRmaWxlLm1hZT4n

> <r_lp_tautomer_probability>
1

> <r_epik_Ionization_Penalty>
  0.0000

> <r_epik_Ionization_Penalty_Charging>
  0.0000

> <r_epik_Ionization_Penalty_Neutral>
  0.0000

> <r_epik_State_Penalty>
 -0.0000

> <r_epik_Charging_Adjusted_Penalty>
0

> <i_epik_Tot_Q>
0

> <i_epik_Tot_abs_Q>
0

> <s_lp_Force_Field>
OPLS3e

> <r_lp_Energy>
10.299179

> <b_lp_Chiralities_Consistent>
1

> <s_lp_Variant>
sdf/inactives_sanitized.sdf:125-1

$$$$
sdf/inactives_sanitized.sdf:126
                    3D
 Schrodinger Suite 2020-1.
 42 43  0  0  1  0            999 V2000
    5.8381   -0.0791   -0.1623 O   0  0  0  0  0  0
   -2.0305   -2.8362   -4.6126 O   0  0  0  0  0  0
   -0.3114   -3.8221    3.1958 O   0  0  0  0  0  0
   -1.4623   -1.9676    3.5840 O   0  5  0  0  0  0
    4.3486    0.7049   -2.4621 N   0  0  0  0  0  0
   -3.3091   -0.4660   -3.6857 N   0  0  0  0  0  0
    0.0869   -0.0578   -0.0402 C   0  0  0  0  0  0
    1.6435   -0.0801   -0.0505 C   0  0  0  0  0  0
   -0.5075   -0.7885   -1.2803 C   0  0  0  0  0  0
   -0.5574   -0.6854    1.2451 C   0  0  0  0  0  0
    2.3275    0.3076   -1.2151 C   0  0  0  0  0  0
   -1.6500   -0.3145   -1.9476 C   0  0  0  0  0  0
    2.4083   -0.4445    1.0699 C   0  0  0  0  0  0
    0.0918   -1.9644   -1.7615 C   0  0  0  0  0  0
    3.7227    0.3144   -1.2745 C   0  0  0  0  0  0
   -2.1710   -0.9817   -3.0594 C   0  0  0  0  0  0
   -0.2987    1.4520   -0.0168 C   0  0  0  0  0  0
    4.4646   -0.0671   -0.1485 C   0  0  0  0  0  0
   -1.5506   -2.1496   -3.5239 C   0  0  0  0  0  0
    3.8015   -0.4427    1.0190 C   0  0  0  0  0  0
   -0.4206   -2.6360   -2.8693 C   0  0  0  0  0  0
   -0.3857   -2.2197    1.4435 C   0  0  0  0  0  0
   -0.7472   -2.6984    2.8614 C   0  0  0  0  0  0
    6.2155   -0.3679    0.6716 H   0  0  0  0  0  0
   -1.5175   -3.6224   -4.8119 H   0  0  0  0  0  0
    5.3577    0.7182   -2.5056 H   0  0  0  0  0  0
    3.7885    0.9738   -3.2582 H   0  0  0  0  0  0
   -3.7008   -0.9586   -4.4756 H   0  0  0  0  0  0
   -3.7527    0.3606   -3.3125 H   0  0  0  0  0  0
   -0.1802   -0.1516    2.1199 H   0  0  0  0  0  0
   -1.6298   -0.4779    1.2384 H   0  0  0  0  0  0
    1.7619    0.6060   -2.0865 H   0  0  0  0  0  0
   -2.1546    0.5762   -1.6070 H   0  0  0  0  0  0
    1.9445   -0.7341    1.9998 H   0  0  0  0  0  0
    0.9646   -2.3712   -1.2723 H   0  0  0  0  0  0
   -0.0183    1.9592   -0.9412 H   0  0  0  0  0  0
    0.2001    1.9770    0.7999 H   0  0  0  0  0  0
   -1.3670    1.6126    0.1313 H   0  0  0  0  0  0
    4.3637   -0.7332    1.8946 H   0  0  0  0  0  0
    0.0642   -3.5374   -3.2152 H   0  0  0  0  0  0
   -1.0230   -2.7580    0.7413 H   0  0  0  0  0  0
    0.6386   -2.5258    1.2321 H   0  0  0  0  0  0
  1 18  1  0  0  0
  1 24  1  0  0  0
  2 19  1  0  0  0
  2 25  1  0  0  0
  3 23  2  0  0  0
  4 23  1  0  0  0
  5 15  1  0  0  0
  5 26  1  0  0  0
  5 27  1  0  0  0
  6 16  1  0  0  0
  6 28  1  0  0  0
  6 29  1  0  0  0
  7  8  1  0  0  0
  7  9  1  0  0  0
  7 10  1  0  0  0
  7 17  1  0  0  0
  8 11  2  0  0  0
  8 13  1  0  0  0
  9 12  2  0  0  0
  9 14  1  0  0  0
 10 22  1  0  0  0
 10 30  1  0  0  0
 10 31  1  0  0  0
 11 15  1  0  0  0
 11 32  1  0  0  0
 12 16  1  0  0  0
 12 33  1  0  0  0
 13 20  2  0  0  0
 13 34  1  0  0  0
 14 21  2  0  0  0
 14 35  1  0  0  0
 15 18  2  0  0  0
 16 19  2  0  0  0
 17 36  1  0  0  0
 17 37  1  0  0  0
 17 38  1  0  0  0
 18 20  1  0  0  0
 19 21  1  0  0  0
 20 39  1  0  0  0
 21 40  1  0  0  0
 22 23  1  0  0  0
 22 41  1  0  0  0
 22 42  1  0  0  0
M  CHG  1   4  -1
M  END
> <chembl_id>
CHEMBL1975923

> <chembl_pref_name>
None

> <s_m_source_file>
sdf/inactives_sanitized.sdf

> <i_m_source_file_index>
126

> <i_lp_mmshare_version>
49012

> <i_m_ct_stereo_status>
1

> <i_f3d_flags>
0

> <s_epik_input>
W2NIXTFbY0hdYyhbT0hdKWMoW05IMl0pW2NIXWMxQyhbQ0gzXSkoW0NIMl1bQ0gyXUMoPU8pW09IXSljMltjSF1jKFtOSDJdKWMoW09IXSlbY0hdW2NIXTI=

> <s_epik_cmdline>
J2VwaWtfcHl0aG9uJywgJy1waHQnLCAnMC41JywgJy1waCcsICc3LjUnLCAnLW50JywgJy1tYScsICcyMDAnLCAnLWltYWUnLCAnPGluZmlsZS5tYWU+JywgJy1vbWFlJywgJzxvdXRmaWxlLm1hZT4n

> <r_epik_Ionization_Penalty>
  0.2378

> <r_epik_Ionization_Penalty_Charging>
  0.0008

> <r_epik_Ionization_Penalty_Neutral>
  0.2369

> <r_epik_State_Penalty>
  0.4963

> <r_epik_Charging_Adjusted_Penalty>
0.497116563898057

> <i_epik_Tot_Q>
-1

> <i_epik_Tot_abs_Q>
1

> <s_lp_Force_Field>
OPLS3e

> <r_lp_Energy>
39.460691

> <b_lp_Chiralities_Consistent>
1

> <s_lp_Variant>
sdf/inactives_sanitized.sdf:126-1

$$$$
sdf/inactives_sanitized.sdf:126
                    3D
 Schrodinger Suite 2020-1.
 42 43  0  0  1  0            999 V2000
   -1.9683   -2.6628    4.6252 O   0  5  0  0  0  0
    5.8609   -0.0304    0.0929 O   0  0  0  0  0  0
   -1.4235   -2.0055   -3.5372 O   0  0  0  0  0  0
   -0.3517   -3.8897   -3.0741 O   0  5  0  0  0  0
    0.3363   -3.7672    3.4012 N   0  3  0  0  0  0
    4.4023    0.7621    2.4093 N   0  0  0  0  0  0
    0.1080   -0.0354    0.0564 C   0  0  1  0  0  0
   -0.4657   -0.7519    1.3139 C   0  0  0  0  0  0
    1.6649   -0.0503    0.0432 C   0  0  0  0  0  0
   -0.5499   -0.6880   -1.2094 C   0  0  0  0  0  0
    0.1573   -1.9093    1.8121 C   0  0  0  0  0  0
    2.3648    0.3500    1.1943 C   0  0  0  0  0  0
   -1.6173   -0.2855    1.9749 C   0  0  0  0  0  0
    2.4149   -0.4197   -1.0856 C   0  0  0  0  0  0
   -0.3581   -2.5537    2.9340 C   0  0  0  0  0  0
    3.7607    0.3614    1.2336 C   0  0  0  0  0  0
   -0.2856    1.4717    0.0208 C   0  0  0  0  0  0
   -1.4956   -2.0821    3.5976 C   0  0  0  0  0  0
    4.4875   -0.0251    0.0996 C   0  0  0  0  0  0
   -2.1218   -0.9383    3.1021 C   0  0  0  0  0  0
    3.8087   -0.4112   -1.0554 C   0  0  0  0  0  0
   -0.3674   -2.2248   -1.3816 C   0  0  0  0  0  0
   -0.7436   -2.7381   -2.7833 C   0  0  0  0  0  0
    6.2282   -0.3097   -0.7487 H   0  0  0  0  0  0
   -0.1443   -4.1742    4.1912 H   0  0  0  0  0  0
    1.2811   -3.5623    3.6929 H   0  0  0  0  0  0
    5.4119    0.7828    2.4369 H   0  0  0  0  0  0
    3.8528    1.0564    3.2037 H   0  0  0  0  0  0
   -1.6237   -0.4893   -1.1911 H   0  0  0  0  0  0
   -0.1894   -0.1656   -2.0978 H   0  0  0  0  0  0
    1.0338   -2.3099    1.3227 H   0  0  0  0  0  0
    1.8107    0.6529    2.0718 H   0  0  0  0  0  0
   -2.1462    0.5880    1.6282 H   0  0  0  0  0  0
    1.9390   -0.7183   -2.0064 H   0  0  0  0  0  0
    0.0031    1.9902    0.9363 H   0  0  0  0  0  0
   -1.3566    1.6243   -0.1155 H   0  0  0  0  0  0
    0.2001    1.9902   -0.8077 H   0  0  0  0  0  0
   -3.0066   -0.5479    3.5846 H   0  0  0  0  0  0
    4.3592   -0.7049   -1.9375 H   0  0  0  0  0  0
    0.6628   -2.5175   -1.1801 H   0  0  0  0  0  0
   -0.9889   -2.7544   -0.6590 H   0  0  0  0  0  0
    0.3764   -4.4698    2.6770 H   0  0  0  0  0  0
  1 18  1  0  0  0
  2 19  1  0  0  0
  2 24  1  0  0  0
  3 23  2  0  0  0
  4 23  1  0  0  0
  5 15  1  0  0  0
  5 25  1  0  0  0
  5 26  1  0  0  0
  5 42  1  0  0  0
  6 16  1  0  0  0
  6 27  1  0  0  0
  6 28  1  0  0  0
  7  8  1  0  0  0
  7  9  1  0  0  0
  7 10  1  0  0  0
  7 17  1  0  0  0
  8 11  2  0  0  0
  8 13  1  0  0  0
  9 12  2  0  0  0
  9 14  1  0  0  0
 10 22  1  0  0  0
 10 29  1  0  0  0
 10 30  1  0  0  0
 11 15  1  0  0  0
 11 31  1  0  0  0
 12 16  1  0  0  0
 12 32  1  0  0  0
 13 20  2  0  0  0
 13 33  1  0  0  0
 14 21  2  0  0  0
 14 34  1  0  0  0
 15 18  2  0  0  0
 16 19  2  0  0  0
 17 35  1  0  0  0
 17 36  1  0  0  0
 17 37  1  0  0  0
 18 20  1  0  0  0
 19 21  1  0  0  0
 20 38  1  0  0  0
 21 39  1  0  0  0
 22 23  1  0  0  0
 22 40  1  0  0  0
 22 41  1  0  0  0
M  CHG  3   1  -1   4  -1   5   1
M  END
> <chembl_id>
CHEMBL1975923

> <chembl_pref_name>
None

> <s_m_source_file>
sdf/inactives_sanitized.sdf

> <i_m_source_file_index>
126

> <i_lp_mmshare_version>
49012

> <i_m_ct_stereo_status>
1

> <i_f3d_flags>
0

> <s_epik_input>
W2NIXTFbY0hdYyhbT0hdKWMoW05IMl0pW2NIXWMxQyhbQ0gzXSkoW0NIMl1bQ0gyXUMoPU8pW09IXSljMltjSF1jKFtOSDJdKWMoW09IXSlbY0hdW2NIXTI=

> <s_epik_cmdline>
J2VwaWtfcHl0aG9uJywgJy1waHQnLCAnMC41JywgJy1waCcsICc3LjUnLCAnLW50JywgJy1tYScsICcyMDAnLCAnLWltYWUnLCAnPGluZmlsZS5tYWU+JywgJy1vbWFlJywgJzxvdXRmaWxlLm1hZT4n

> <r_epik_Ionization_Penalty>
  0.0624

> <r_epik_Ionization_Penalty_Charging>
  0.0581

> <r_epik_Ionization_Penalty_Neutral>
  0.0044

> <r_epik_State_Penalty>
  0.5900

> <r_epik_Charging_Adjusted_Penalty>
0.648024924121516

> <i_epik_Tot_Q>
-1

> <i_epik_Tot_abs_Q>
3

> <s_lp_Force_Field>
OPLS3e

> <r_lp_Energy>
32.584156

> <b_lp_Chiralities_Consistent>
1

> <s_lp_Variant>
sdf/inactives_sanitized.sdf:126-2

$$$$
sdf/inactives_sanitized.sdf:127
                    3D
 Schrodinger Suite 2020-1.
 28 30  0  0  1  0            999 V2000
   -2.6267   -3.3235    0.7234 S   0  0  0  0  0  0
    2.5870    1.5967   -1.7257 S   0  0  0  0  0  0
   -0.5442    0.5601   -0.6340 O   0  0  0  0  0  0
   -2.9728   -0.8867   -0.1389 N   0  0  0  0  0  0
   -0.6782   -1.5999    0.1172 N   0  0  0  0  0  0
   -4.2691   -2.7337    0.5050 C   0  0  0  0  0  0
   -4.2219   -1.3934    0.0333 C   0  0  0  0  0  0
   -2.0549   -1.7659    0.1752 C   0  0  0  0  0  0
   -5.4920   -3.3822    0.7246 C   0  0  0  0  0  0
   -5.4140   -0.6970   -0.2190 C   0  0  0  0  0  0
   -0.0103   -0.4924   -0.2764 C   0  0  0  0  0  0
    2.1731   -0.0872   -1.5232 C   0  0  0  0  0  0
    1.5223   -0.5947   -0.2505 C   0  0  0  0  0  0
   -6.6632   -2.6696    0.4654 C   0  0  0  0  0  0
   -6.6255   -1.3539    0.0035 C   0  0  0  0  0  0
    2.4859   -0.7860   -2.6902 C   0  0  0  0  0  0
    3.1821    1.3227   -3.3274 C   0  0  0  0  0  0
    3.0565   -0.0031   -3.6976 C   0  0  0  0  0  0
   -0.1292   -2.3985    0.3992 H   0  0  0  0  0  0
   -5.5309   -4.4010    1.0817 H   0  0  0  0  0  0
   -5.4003    0.3217   -0.5778 H   0  0  0  0  0  0
    1.8813   -0.0403    0.6172 H   0  0  0  0  0  0
    1.8246   -1.6289   -0.0754 H   0  0  0  0  0  0
   -7.6195   -3.1461    0.6255 H   0  0  0  0  0  0
   -7.5527   -0.8331   -0.1867 H   0  0  0  0  0  0
    2.3021   -1.8440   -2.8052 H   0  0  0  0  0  0
    3.5830    2.1386   -3.9105 H   0  0  0  0  0  0
    3.3600   -0.3891   -4.6596 H   0  0  0  0  0  0
  1  6  1  0  0  0
  1  8  1  0  0  0
  2 12  1  0  0  0
  2 17  1  0  0  0
  3 11  2  0  0  0
  4  7  1  0  0  0
  4  8  2  0  0  0
  5  8  1  0  0  0
  5 11  1  0  0  0
  5 19  1  0  0  0
  6  7  2  0  0  0
  6  9  1  0  0  0
  7 10  1  0  0  0
  9 14  2  0  0  0
  9 20  1  0  0  0
 10 15  2  0  0  0
 10 21  1  0  0  0
 11 13  1  0  0  0
 12 13  1  0  0  0
 12 16  2  0  0  0
 13 22  1  0  0  0
 13 23  1  0  0  0
 14 15  1  0  0  0
 14 24  1  0  0  0
 15 25  1  0  0  0
 16 18  1  0  0  0
 16 26  1  0  0  0
 17 18  2  0  0  0
 17 27  1  0  0  0
 18 28  1  0  0  0
M  END
> <chembl_id>
CHEMBL1421720

> <chembl_pref_name>
None

> <s_m_source_file>
sdf/inactives_sanitized.sdf

> <i_m_source_file_index>
127

> <i_lp_mmshare_version>
49012

> <i_m_ct_stereo_status>
1

> <i_f3d_flags>
0

> <s_epik_input>
W2NIXTFbY0hdW2NIXVtjSF1jKGMxMiluYyhzMilbTkhdQyg9TylbQ0gyXWMzc1tjSF1bY0hdW2NIXTM=

> <s_epik_cmdline>
J2VwaWtfcHl0aG9uJywgJy1waHQnLCAnMC41JywgJy1waCcsICc3LjUnLCAnLW50JywgJy1tYScsICcyMDAnLCAnLWltYWUnLCAnPGluZmlsZS5tYWU+JywgJy1vbWFlJywgJzxvdXRmaWxlLm1hZT4n

> <r_lp_tautomer_probability>
1

> <r_epik_Ionization_Penalty>
  0.0191

> <r_epik_Ionization_Penalty_Charging>
  0.0000

> <r_epik_Ionization_Penalty_Neutral>
  0.0191

> <r_epik_State_Penalty>
 -0.0000

> <r_epik_Charging_Adjusted_Penalty>
0

> <i_epik_Tot_Q>
0

> <i_epik_Tot_abs_Q>
0

> <s_lp_Force_Field>
OPLS3e

> <r_lp_Energy>
17.466184

> <b_lp_Chiralities_Consistent>
1

> <s_lp_Variant>
sdf/inactives_sanitized.sdf:127-1

$$$$
sdf/inactives_sanitized.sdf:128
                    3D
 Schrodinger Suite 2020-1.
 43 46  0  0  1  0            999 V2000
   -0.7209    2.4411    0.1246 O   0  0  0  0  0  0
    8.0102    2.5409   -2.5952 O   0  0  0  0  0  0
   -2.2686    0.6871    0.1823 N   0  0  0  0  0  0
    1.9570   -0.9525   -0.7742 N   0  0  0  0  0  0
    6.2413    1.1180   -0.8606 N   0  0  0  0  0  0
   -1.4418   -5.9967    0.0329 N   0  0  0  0  0  0
   -0.1131    0.0037    0.0397 C   0  0  0  0  0  0
   -0.9764   -1.1558    0.0717 C   0  0  0  0  0  0
   -2.3260   -0.6880    0.1567 C   0  0  0  0  0  0
   -0.9640    1.0939    0.1186 C   0  0  0  0  0  0
    1.3786    0.0308   -0.0335 C   0  0  0  0  0  0
   -0.7557   -2.5448    0.0426 C   0  0  0  0  0  0
   -3.4212   -1.5560    0.2021 C   0  0  0  0  0  0
   -1.8467   -3.4156    0.0891 C   0  0  0  0  0  0
    2.1344    0.9889    0.6520 C   0  0  0  0  0  0
   -3.1499   -2.9232    0.1658 C   0  0  0  0  0  0
    4.1351   -0.0493   -0.2219 C   0  0  0  0  0  0
    3.3113   -0.9799   -0.8620 C   0  0  0  0  0  0
    3.5260    0.9457    0.5517 C   0  0  0  0  0  0
    5.6514   -0.1279   -0.3606 C   0  0  0  0  0  0
   -1.6210   -4.8535    0.0578 C   0  0  0  0  0  0
    7.6925    1.1354   -0.6353 C   0  0  0  0  0  0
    5.9125    1.3522   -2.2750 C   0  0  0  0  0  0
    8.3385    2.4117   -1.2162 C   0  0  0  0  0  0
    6.6059    2.6221   -2.8128 C   0  0  0  0  0  0
    0.2100    2.6168   -0.0305 H   0  0  0  0  0  0
   -3.0368    1.3398    0.2396 H   0  0  0  0  0  0
    0.2515   -2.9328   -0.0152 H   0  0  0  0  0  0
   -4.4366   -1.1930    0.2651 H   0  0  0  0  0  0
    1.6604    1.7488    1.2556 H   0  0  0  0  0  0
   -3.9846   -3.6101    0.2012 H   0  0  0  0  0  0
    3.7314   -1.7707   -1.4663 H   0  0  0  0  0  0
    4.1257    1.6790    1.0713 H   0  0  0  0  0  0
    5.9405   -0.9705   -0.9920 H   0  0  0  0  0  0
    6.0464   -0.3306    0.6364 H   0  0  0  0  0  0
    7.8943    1.0689    0.4347 H   0  0  0  0  0  0
    8.1477    0.2507   -1.0842 H   0  0  0  0  0  0
    6.2110    0.4874   -2.8704 H   0  0  0  0  0  0
    4.8319    1.4401   -2.3934 H   0  0  0  0  0  0
    9.4230    2.3569   -1.1200 H   0  0  0  0  0  0
    8.0214    3.2980   -0.6631 H   0  0  0  0  0  0
    6.1979    3.5200   -2.3444 H   0  0  0  0  0  0
    6.4239    2.7202   -3.8831 H   0  0  0  0  0  0
  1 10  1  0  0  0
  1 26  1  0  0  0
  2 24  1  0  0  0
  2 25  1  0  0  0
  3  9  1  0  0  0
  3 10  1  0  0  0
  3 27  1  0  0  0
  4 11  2  0  0  0
  4 18  1  0  0  0
  5 20  1  0  0  0
  5 22  1  0  0  0
  5 23  1  0  0  0
  6 21  3  0  0  0
  7  8  1  0  0  0
  7 10  2  0  0  0
  7 11  1  0  0  0
  8  9  2  0  0  0
  8 12  1  0  0  0
  9 13  1  0  0  0
 11 15  1  0  0  0
 12 14  2  0  0  0
 12 28  1  0  0  0
 13 16  2  0  0  0
 13 29  1  0  0  0
 14 16  1  0  0  0
 14 21  1  0  0  0
 15 19  2  0  0  0
 15 30  1  0  0  0
 16 31  1  0  0  0
 17 18  2  0  0  0
 17 19  1  0  0  0
 17 20  1  0  0  0
 18 32  1  0  0  0
 19 33  1  0  0  0
 20 34  1  0  0  0
 20 35  1  0  0  0
 22 24  1  0  0  0
 22 36  1  0  0  0
 22 37  1  0  0  0
 23 25  1  0  0  0
 23 38  1  0  0  0
 23 39  1  0  0  0
 24 40  1  0  0  0
 24 41  1  0  0  0
 25 42  1  0  0  0
 25 43  1  0  0  0
M  END
> <chembl_id>
CHEMBL1969664

> <chembl_pref_name>
AZD-1080

> <s_m_source_file>
sdf/inactives_sanitized.sdf

> <i_m_source_file_index>
128

> <i_lp_mmshare_version>
49012

> <i_m_ct_stereo_status>
1

> <i_f3d_flags>
0

> <s_epik_input>
TiNDYyhbY0hdMSlbY0hdW2NIXWMoYzEyKVtuSF1jKFtPSF0pYzItYzNuW2NIXWMoW2NIXVtjSF0zKVtDSDJdTjRbQ0gyXVtDSDJdT1tDSDJdW0NIMl00

> <s_epik_cmdline>
J2VwaWtfcHl0aG9uJywgJy1waHQnLCAnMC41JywgJy1waCcsICc3LjUnLCAnLW50JywgJy1tYScsICcyMDAnLCAnLWltYWUnLCAnPGluZmlsZS5tYWU+JywgJy1vbWFlJywgJzxvdXRmaWxlLm1hZT4n

> <r_epik_Ionization_Penalty>
  0.2531

> <r_epik_Ionization_Penalty_Charging>
  0.0000

> <r_epik_Ionization_Penalty_Neutral>
  0.2531

> <r_epik_State_Penalty>
  0.2315

> <r_epik_Charging_Adjusted_Penalty>
0.231461855733281

> <i_epik_Tot_Q>
0

> <i_epik_Tot_abs_Q>
0

> <s_lp_Force_Field>
OPLS3e

> <r_lp_Energy>
26.326616

> <b_lp_Chiralities_Consistent>
1

> <s_lp_Variant>
sdf/inactives_sanitized.sdf:128-1

$$$$
sdf/inactives_sanitized.sdf:129
                    3D
 Schrodinger Suite 2020-1.
 38 40  0  0  1  0            999 V2000
    0.0294    3.8961   -0.7340 C   0  0  0  0  0  0
   -1.2725    4.1886   -0.5195 N   0  0  0  0  0  0
   -2.0552    3.1978   -0.0407 C   0  0  0  0  0  0
    0.5905    2.6421   -0.4948 C   0  0  0  0  0  0
   -0.2280    1.5800   -0.0013 C   0  0  0  0  0  0
   -1.6068    1.8870    0.2458 C   0  0  0  0  0  0
   -2.4730    0.9004    0.7666 C   0  0  0  0  0  0
   -1.9901   -0.3699    1.0457 C   0  0  0  0  0  0
   -0.6602   -0.6875    0.8064 C   0  0  0  0  0  0
    0.2389    0.2504    0.2874 C   0  0  0  0  0  0
    1.9225   -0.3311   -0.0390 S   0  0  0  0  0  0
    2.8610    0.1041    1.4077 N   0  0  3  0  0  0
    1.8627   -1.7964   -0.1045 O   0  0  0  0  0  0
    2.4550    0.4053   -1.1901 O   0  0  0  0  0  0
    2.6535    2.4963    2.3574 C   0  0  0  0  0  0
    1.3018    1.9830    2.8858 N   0  3  0  0  0  0
    1.3291    0.9417    4.0169 C   0  0  0  0  0  0
    3.4448    1.4733    1.4987 C   0  0  0  0  0  0
    2.7109   -0.7697    2.6043 C   0  0  0  0  0  0
    2.5203   -0.0301    3.9428 C   0  0  0  0  0  0
    0.6421    4.7044   -1.1061 H   0  0  0  0  0  0
   -3.0902    3.4573    0.1305 H   0  0  0  0  0  0
    1.6437    2.5142   -0.6704 H   0  0  0  0  0  0
   -3.5107    1.1403    0.9504 H   0  0  0  0  0  0
   -2.6561   -1.1207    1.4452 H   0  0  0  0  0  0
   -0.3335   -1.6922    1.0306 H   0  0  0  0  0  0
    2.3739    3.3695    1.7675 H   0  0  0  0  0  0
    3.2012    2.8369    3.2371 H   0  0  0  0  0  0
    0.7560    2.7723    3.2019 H   0  0  0  0  0  0
    1.3502    1.5341    4.9322 H   0  0  0  0  0  0
    0.3649    0.4383    3.9389 H   0  0  0  0  0  0
    4.4421    1.3573    1.9246 H   0  0  0  0  0  0
    3.6058    1.8530    0.4901 H   0  0  0  0  0  0
    1.9597   -1.5410    2.4327 H   0  0  0  0  0  0
    3.6626   -1.2914    2.7139 H   0  0  0  0  0  0
    3.4383    0.5013    4.1980 H   0  0  0  0  0  0
    2.4062   -0.7743    4.7315 H   0  0  0  0  0  0
    0.8096    1.5794    2.1008 H   0  0  0  0  0  0
  1  2  2  0  0  0
  1  4  1  0  0  0
  1 21  1  0  0  0
  2  3  1  0  0  0
  3  6  2  0  0  0
  3 22  1  0  0  0
  4  5  2  0  0  0
  4 23  1  0  0  0
  5  6  1  0  0  0
  5 10  1  0  0  0
  6  7  1  0  0  0
  7  8  2  0  0  0
  7 24  1  0  0  0
  8  9  1  0  0  0
  8 25  1  0  0  0
  9 10  2  0  0  0
  9 26  1  0  0  0
 10 11  1  0  0  0
 11 12  1  0  0  0
 11 13  2  0  0  0
 11 14  2  0  0  0
 12 18  1  0  0  0
 12 19  1  0  0  0
 15 16  1  0  0  0
 15 18  1  0  0  0
 15 27  1  0  0  0
 15 28  1  0  0  0
 16 17  1  0  0  0
 16 29  1  0  0  0
 16 38  1  0  0  0
 17 20  1  0  0  0
 17 30  1  0  0  0
 17 31  1  0  0  0
 18 32  1  0  0  0
 18 33  1  0  0  0
 19 20  1  0  0  0
 19 34  1  0  0  0
 19 35  1  0  0  0
 20 36  1  0  0  0
 20 37  1  0  0  0
M  CHG  1  16   1
M  END
> <chembl_id>
CHEMBL38380

> <chembl_pref_name>
FASUDIL

> <s_m_source_file>
sdf/inactives_sanitized.sdf

> <i_m_source_file_index>
129

> <i_lp_mmshare_version>
49012

> <i_m_ct_stereo_status>
1

> <i_f3d_flags>
0

> <s_epik_input>
W2NIXTFbY0hdbltjSF1jKGMxMilbY0hdW2NIXVtjSF1jMlMoPU8pKD1PKU4zW0NIMl1bQ0gyXVtOSF1bQ0gyXVtDSDJdW0NIMl0z

> <s_epik_cmdline>
J2VwaWtfcHl0aG9uJywgJy1waHQnLCAnMC41JywgJy1waCcsICc3LjUnLCAnLW50JywgJy1tYScsICcyMDAnLCAnLWltYWUnLCAnPGluZmlsZS5tYWU+JywgJy1vbWFlJywgJzxvdXRmaWxlLm1hZT4n

> <r_epik_Ionization_Penalty>
  0.0254

> <r_epik_Ionization_Penalty_Charging>
  0.0252

> <r_epik_Ionization_Penalty_Neutral>
  0.0002

> <r_epik_State_Penalty>
  0.0205

> <r_epik_Charging_Adjusted_Penalty>
0.0456795071248988

> <i_epik_Tot_Q>
1

> <i_epik_Tot_abs_Q>
1

> <s_lp_Force_Field>
OPLS3e

> <r_lp_Energy>
27.543618

> <b_lp_Chiralities_Consistent>
1

> <s_lp_Variant>
sdf/inactives_sanitized.sdf:129-1

$$$$
sdf/inactives_sanitized.sdf:130
                    3D
 Schrodinger Suite 2020-1.
 52 55  0  0  1  0            999 V2000
    5.5099   -0.5871   -0.6607 O   0  0  0  0  0  0
    3.8000   -2.6467   -1.0850 O   0  0  0  0  0  0
    4.6805    1.8347    0.2218 O   0  0  0  0  0  0
    3.5592    6.1405   -4.3085 O   0  0  0  0  0  0
   -1.0643    4.4522   -1.6323 N   0  0  0  0  0  0
   -0.3372    2.2924   -0.7052 N   0  0  0  0  0  0
    0.0645    0.1591    0.2731 N   0  0  0  0  0  0
   -2.0371    1.1113    0.5614 N   0  0  0  0  0  0
   -1.2318    3.2740   -0.9032 C   0  0  0  0  0  0
   -2.5652    3.2513   -0.4006 C   0  0  0  0  0  0
   -0.7925    1.2434    0.0367 C   0  0  0  0  0  0
    0.0963    4.9155   -2.3036 C   0  0  0  0  0  0
   -2.2597    5.1475   -1.5580 C   0  0  0  0  0  0
   -3.2007    4.4556   -0.8238 C   0  0  0  0  0  0
    1.4387    0.0071    0.0293 C   0  0  0  0  0  0
   -2.9203    2.1186    0.3461 C   0  0  0  0  0  0
    4.1702   -0.3947   -0.4207 C   0  0  0  0  0  0
    3.2717   -1.4475   -0.6413 C   0  0  0  0  0  0
    3.7219    0.8572    0.0222 C   0  0  0  0  0  0
    1.9055   -1.2348   -0.3992 C   0  0  0  0  0  0
    2.3487    1.0461    0.2445 C   0  0  0  0  0  0
   -0.0320    5.6066   -3.5139 C   0  0  0  0  0  0
    1.3722    4.6365   -1.8021 C   0  0  0  0  0  0
    2.3812    5.7602   -3.6945 C   0  0  0  0  0  0
    1.1013    6.0302   -4.2026 C   0  0  0  0  0  0
    2.5028    5.0615   -2.4936 C   0  0  0  0  0  0
    6.2366   -1.0641    0.4638 C   0  0  0  0  0  0
    2.9309   -3.7483   -1.3237 C   0  0  0  0  0  0
    4.2897    3.1054    0.7286 C   0  0  0  0  0  0
    3.5027    6.8496   -5.5417 C   0  0  0  0  0  0
   -0.3663   -0.6133    0.7596 H   0  0  0  0  0  0
   -2.3485    6.1095   -2.0418 H   0  0  0  0  0  0
   -4.2105    4.7842   -0.6251 H   0  0  0  0  0  0
   -3.9079    2.0064    0.7687 H   0  0  0  0  0  0
    1.1906   -2.0298   -0.5516 H   0  0  0  0  0  0
    1.9791    1.9966    0.5981 H   0  0  0  0  0  0
   -1.0051    5.8125   -3.9350 H   0  0  0  0  0  0
    1.5008    4.1059   -0.8712 H   0  0  0  0  0  0
    0.9661    6.5620   -5.1319 H   0  0  0  0  0  0
    3.4830    4.8459   -2.0943 H   0  0  0  0  0  0
    7.2857   -1.1825    0.1933 H   0  0  0  0  0  0
    5.8672   -2.0354    0.7970 H   0  0  0  0  0  0
    6.1857   -0.3656    1.3009 H   0  0  0  0  0  0
    3.5171   -4.6007   -1.6665 H   0  0  0  0  0  0
    2.1975   -3.5190   -2.0984 H   0  0  0  0  0  0
    2.4097   -4.0512   -0.4142 H   0  0  0  0  0  0
    5.1730    3.7333    0.8444 H   0  0  0  0  0  0
    3.8153    3.0189    1.7072 H   0  0  0  0  0  0
    3.6114    3.6157    0.0455 H   0  0  0  0  0  0
    4.5163    7.0663   -5.8786 H   0  0  0  0  0  0
    2.9808    7.8016   -5.4331 H   0  0  0  0  0  0
    3.0154    6.2603   -6.3199 H   0  0  0  0  0  0
  1 17  1  0  0  0
  1 27  1  0  0  0
  2 18  1  0  0  0
  2 28  1  0  0  0
  3 19  1  0  0  0
  3 29  1  0  0  0
  4 24  1  0  0  0
  4 30  1  0  0  0
  5  9  1  0  0  0
  5 12  1  0  0  0
  5 13  1  0  0  0
  6  9  2  0  0  0
  6 11  1  0  0  0
  7 11  1  0  0  0
  7 15  1  0  0  0
  7 31  1  0  0  0
  8 11  2  0  0  0
  8 16  1  0  0  0
  9 10  1  0  0  0
 10 14  1  0  0  0
 10 16  2  0  0  0
 12 22  2  0  0  0
 12 23  1  0  0  0
 13 14  2  0  0  0
 13 32  1  0  0  0
 14 33  1  0  0  0
 15 20  2  0  0  0
 15 21  1  0  0  0
 16 34  1  0  0  0
 17 18  2  0  0  0
 17 19  1  0  0  0
 18 20  1  0  0  0
 19 21  2  0  0  0
 20 35  1  0  0  0
 21 36  1  0  0  0
 22 25  1  0  0  0
 22 37  1  0  0  0
 23 26  2  0  0  0
 23 38  1  0  0  0
 24 25  2  0  0  0
 24 26  1  0  0  0
 25 39  1  0  0  0
 26 40  1  0  0  0
 27 41  1  0  0  0
 27 42  1  0  0  0
 27 43  1  0  0  0
 28 44  1  0  0  0
 28 45  1  0  0  0
 28 46  1  0  0  0
 29 47  1  0  0  0
 29 48  1  0  0  0
 29 49  1  0  0  0
 30 50  1  0  0  0
 30 51  1  0  0  0
 30 52  1  0  0  0
M  END
> <chembl_id>
CHEMBL1975927

> <chembl_pref_name>
None

> <s_m_source_file>
sdf/inactives_sanitized.sdf

> <i_m_source_file_index>
130

> <i_lp_mmshare_version>
49012

> <i_m_ct_stereo_status>
1

> <i_f3d_flags>
0

> <s_epik_input>
W0NIM11PYyhbY0hdMSljKE9bQ0gzXSljKE9bQ0gzXSlbY0hdYzFbTkhdYyhuMiluW2NIXWMoYzIzKVtjSF1bY0hdbjMtYzRbY0hdW2NIXWMoT1tDSDNdKVtjSF1bY0hdNA==

> <s_epik_cmdline>
J2VwaWtfcHl0aG9uJywgJy1waHQnLCAnMC41JywgJy1waCcsICc3LjUnLCAnLW50JywgJy1tYScsICcyMDAnLCAnLWltYWUnLCAnPGluZmlsZS5tYWU+JywgJy1vbWFlJywgJzxvdXRmaWxlLm1hZT4n

> <r_lp_tautomer_probability>
1

> <r_epik_Ionization_Penalty>
  0.0076

> <r_epik_Ionization_Penalty_Charging>
  0.0000

> <r_epik_Ionization_Penalty_Neutral>
  0.0076

> <r_epik_State_Penalty>
 -0.0000

> <r_epik_Charging_Adjusted_Penalty>
0

> <i_epik_Tot_Q>
0

> <i_epik_Tot_abs_Q>
0

> <s_lp_Force_Field>
OPLS3e

> <r_lp_Energy>
45.386232

> <b_lp_Chiralities_Consistent>
1

> <s_lp_Variant>
sdf/inactives_sanitized.sdf:130-1

$$$$
sdf/inactives_sanitized.sdf:131
                    3D
 Schrodinger Suite 2020-1.
 52 53  0  0  1  0            999 V2000
   -5.0681   -1.4516    0.3327 S   0  0  0  0  0  0
    1.5744    1.3907   -1.8615 O   0  0  0  0  0  0
    1.7065   -1.1756    2.1688 O   0  0  0  0  0  0
   -0.3670   -3.5423    0.4650 O   0  0  0  0  0  0
    1.2157   -2.6453   -0.9214 O   0  0  0  0  0  0
   -4.9389   -2.1799   -0.9339 O   0  0  0  0  0  0
   -4.7268   -2.1028    1.6020 O   0  0  0  0  0  0
    1.2024    2.6824   -3.7031 O   0  0  0  0  0  0
    1.4360   -2.9999    3.5492 O   0  0  0  0  0  0
   -4.0471   -0.0052    0.2061 N   0  0  0  0  0  0
    0.1798   -0.0010    0.1295 C   0  0  0  0  0  0
    1.6742    0.1085    0.1523 C   0  0  0  0  0  0
   -0.5158   -1.2272   -0.0159 C   0  0  0  0  0  0
    2.3454    0.8217   -0.8602 C   0  0  0  0  0  0
    2.4106   -0.4994    1.1880 C   0  0  0  0  0  0
   -0.5618    1.1759    0.2915 C   0  0  0  0  0  0
   -1.9205   -1.2259    0.0097 C   0  0  0  0  0  0
   -2.6449   -0.0416    0.1789 C   0  0  0  0  0  0
    0.1839   -2.5330   -0.2537 C   0  0  0  0  0  0
   -1.9528    1.1588    0.3157 C   0  0  0  0  0  0
    3.7466    0.9142   -0.8223 C   0  0  0  0  0  0
    3.8084   -0.3845    1.2028 C   0  0  0  0  0  0
    4.4704    0.3165    0.2025 C   0  0  0  0  0  0
    2.1745    2.1620   -2.8559 C   0  0  0  0  0  0
    2.3509   -2.1446    2.9419 C   0  0  0  0  0  0
   -6.7982   -0.7142    0.4541 C   0  0  0  0  0  0
    0.2023   -4.8431    0.4490 C   0  0  0  0  0  0
    1.7235    3.4864   -4.7517 C   0  0  0  0  0  0
    0.6325   -2.3879    4.5494 C   0  0  0  0  0  0
   -4.4907    0.8937    0.3231 H   0  0  0  0  0  0
   -0.0522    2.1218    0.4075 H   0  0  0  0  0  0
   -2.4528   -2.1576   -0.1161 H   0  0  0  0  0  0
   -2.4888    2.0881    0.4449 H   0  0  0  0  0  0
    4.2945    1.4467   -1.5845 H   0  0  0  0  0  0
    4.3954   -0.8311    1.9913 H   0  0  0  0  0  0
    5.5472    0.3978    0.2219 H   0  0  0  0  0  0
    2.7145    2.9918   -2.3929 H   0  0  0  0  0  0
    2.8443    1.5274   -3.4412 H   0  0  0  0  0  0
    2.9628   -2.7798    2.2982 H   0  0  0  0  0  0
    2.9849   -1.6810    3.7009 H   0  0  0  0  0  0
   -7.5218   -1.5256    0.5260 H   0  0  0  0  0  0
   -6.9934   -0.1195   -0.4379 H   0  0  0  0  0  0
   -6.8546   -0.0859    1.3424 H   0  0  0  0  0  0
   -0.3833   -5.5099    1.0816 H   0  0  0  0  0  0
    1.2251   -4.8259    0.8287 H   0  0  0  0  0  0
    0.2131   -5.2540   -0.5616 H   0  0  0  0  0  0
    0.9043    3.8536   -5.3698 H   0  0  0  0  0  0
    2.3979    2.9175   -5.3939 H   0  0  0  0  0  0
    2.2610    4.3522   -4.3615 H   0  0  0  0  0  0
   -0.0380   -3.1308    4.9811 H   0  0  0  0  0  0
    0.0181   -1.5867    4.1356 H   0  0  0  0  0  0
    1.2418   -1.9784    5.3568 H   0  0  0  0  0  0
  1  6  2  0  0  0
  1  7  2  0  0  0
  1 10  1  0  0  0
  1 26  1  0  0  0
  2 14  1  0  0  0
  2 24  1  0  0  0
  3 15  1  0  0  0
  3 25  1  0  0  0
  4 19  1  0  0  0
  4 27  1  0  0  0
  5 19  2  0  0  0
  8 24  1  0  0  0
  8 28  1  0  0  0
  9 25  1  0  0  0
  9 29  1  0  0  0
 10 18  1  0  0  0
 10 30  1  0  0  0
 11 12  1  0  0  0
 11 13  2  0  0  0
 11 16  1  0  0  0
 12 14  2  0  0  0
 12 15  1  0  0  0
 13 17  1  0  0  0
 13 19  1  0  0  0
 14 21  1  0  0  0
 15 22  2  0  0  0
 16 20  2  0  0  0
 16 31  1  0  0  0
 17 18  2  0  0  0
 17 32  1  0  0  0
 18 20  1  0  0  0
 20 33  1  0  0  0
 21 23  2  0  0  0
 21 34  1  0  0  0
 22 23  1  0  0  0
 22 35  1  0  0  0
 23 36  1  0  0  0
 24 37  1  0  0  0
 24 38  1  0  0  0
 25 39  1  0  0  0
 25 40  1  0  0  0
 26 41  1  0  0  0
 26 42  1  0  0  0
 26 43  1  0  0  0
 27 44  1  0  0  0
 27 45  1  0  0  0
 27 46  1  0  0  0
 28 47  1  0  0  0
 28 48  1  0  0  0
 28 49  1  0  0  0
 29 50  1  0  0  0
 29 51  1  0  0  0
 29 52  1  0  0  0
M  END
> <chembl_id>
CHEMBL2004025

> <chembl_pref_name>
None

> <s_m_source_file>
sdf/inactives_sanitized.sdf

> <i_m_source_file_index>
131

> <i_lp_mmshare_version>
49012

> <i_m_ct_stereo_status>
1

> <i_f3d_flags>
0

> <s_epik_input>
Tz1TKD1PKShbQ0gzXSlbTkhdYyhbY0hdW2NIXTEpW2NIXWMoQyg9TylPW0NIM10pYzEtYzJjKE9bQ0gyXU9bQ0gzXSlbY0hdW2NIXVtjSF1jMk9bQ0gyXU9bQ0gzXQ==

> <s_epik_cmdline>
J2VwaWtfcHl0aG9uJywgJy1waHQnLCAnMC41JywgJy1waCcsICc3LjUnLCAnLW50JywgJy1tYScsICcyMDAnLCAnLWltYWUnLCAnPGluZmlsZS5tYWU+JywgJy1vbWFlJywgJzxvdXRmaWxlLm1hZT4n

> <r_lp_tautomer_probability>
1

> <r_epik_Ionization_Penalty>
  0.1764

> <r_epik_Ionization_Penalty_Charging>
  0.0000

> <r_epik_Ionization_Penalty_Neutral>
  0.1764

> <r_epik_State_Penalty>
  0.1658

> <r_epik_Charging_Adjusted_Penalty>
0.165818075271878

> <i_epik_Tot_Q>
0

> <i_epik_Tot_abs_Q>
0

> <s_epik_Chemistry_Notes>
This compound has an ester and may undergo hydrolysis at high or low pH. This compound contains an acetal/aminal-like group ( X-CH(R)-Y where X, Y are N, S, or O) that may be acid/base labile, releasing an aldehyde.

> <s_lp_Force_Field>
OPLS3e

> <r_lp_Energy>
37.844349

> <b_lp_Chiralities_Consistent>
1

> <s_lp_Variant>
sdf/inactives_sanitized.sdf:131-1

$$$$
sdf/inactives_sanitized.sdf:132
                    3D
 Schrodinger Suite 2020-1.
 48 50  0  0  1  0            999 V2000
   -0.6334    6.9407    2.6278 C   0  0  0  0  0  0
   -1.0188    5.7432    1.8888 N   0  0  0  0  0  0
   -0.1964    4.7245    1.5667 C   0  0  0  0  0  0
    0.9978    4.7078    1.8748 O   0  0  0  0  0  0
   -0.8072    3.5730    0.7915 C   0  0  0  0  0  0
   -0.0238    2.4633    0.4332 C   0  0  0  0  0  0
   -0.6040    1.4053   -0.2892 C   0  0  0  0  0  0
    0.0738    0.2693   -0.6873 O   0  0  0  0  0  0
    1.4228    0.1329   -0.4625 C   0  0  0  0  0  0
    2.3407    0.7199   -1.3338 C   0  0  0  0  0  0
    3.7060    0.5663   -1.1089 C   0  0  0  0  0  0
    4.1597   -0.1848   -0.0216 C   0  0  0  0  0  0
    5.5557   -0.2809    0.1314 N   0  0  0  0  0  0
    6.2686   -1.2106    0.8004 C   0  0  0  0  0  0
    5.7890   -2.1914    1.3708 O   0  0  0  0  0  0
    7.5840   -0.9188    0.7344 N   0  0  0  0  0  0
    8.6733   -1.5880    1.3252 C   0  0  0  0  0  0
    8.5664   -2.5001    2.3861 C   0  0  0  0  0  0
    9.7084   -3.0996    2.9110 C   0  0  0  0  0  0
   10.9694   -2.7978    2.3969 C   0  0  0  0  0  0
   12.3429   -3.5825    3.1011 Cl  0  0  0  0  0  0
   11.0988   -1.8770    1.3410 C   0  0  0  0  0  0
    9.9404   -1.2798    0.8213 C   0  0  0  0  0  0
   12.4724   -1.5218    0.7588 C   0  0  0  0  0  0
   12.3977   -0.6333   -0.2343 F   0  0  0  0  0  0
   13.2476   -1.0037    1.7120 F   0  0  0  0  0  0
   13.0594   -2.6194    0.2806 F   0  0  0  0  0  0
    3.2316   -0.7629    0.8595 C   0  0  0  0  0  0
    1.8668   -0.6073    0.6322 C   0  0  0  0  0  0
   -1.9567    1.4928   -0.6249 C   0  0  0  0  0  0
   -2.6802    2.6195   -0.2394 C   0  0  0  0  0  0
   -2.1284    3.6453    0.4540 N   0  0  0  0  0  0
   -0.6827    7.8107    1.9730 H   0  0  0  0  0  0
    0.3741    6.8836    3.0417 H   0  0  0  0  0  0
   -1.3255    7.1004    3.4545 H   0  0  0  0  0  0
   -1.9838    5.6887    1.5958 H   0  0  0  0  0  0
    1.0191    2.4217    0.7128 H   0  0  0  0  0  0
    1.9943    1.2939   -2.1807 H   0  0  0  0  0  0
    4.4065    1.0277   -1.7905 H   0  0  0  0  0  0
    6.0842    0.4010   -0.3927 H   0  0  0  0  0  0
    7.8413   -0.1386    0.1480 H   0  0  0  0  0  0
    7.6169   -2.7507    2.8316 H   0  0  0  0  0  0
    9.6109   -3.8004    3.7273 H   0  0  0  0  0  0
   10.0212   -0.5689    0.0110 H   0  0  0  0  0  0
    3.5427   -1.3224    1.7280 H   0  0  0  0  0  0
    1.1537   -1.0565    1.3079 H   0  0  0  0  0  0
   -2.4381    0.6983   -1.1760 H   0  0  0  0  0  0
   -3.7277    2.7123   -0.4860 H   0  0  0  0  0  0
  1  2  1  0  0  0
  1 33  1  0  0  0
  1 34  1  0  0  0
  1 35  1  0  0  0
  2  3  1  0  0  0
  2 36  1  0  0  0
  3  4  2  0  0  0
  3  5  1  0  0  0
  5  6  2  0  0  0
  5 32  1  0  0  0
  6  7  1  0  0  0
  6 37  1  0  0  0
  7  8  1  0  0  0
  7 30  2  0  0  0
  8  9  1  0  0  0
  9 10  2  0  0  0
  9 29  1  0  0  0
 10 11  1  0  0  0
 10 38  1  0  0  0
 11 12  2  0  0  0
 11 39  1  0  0  0
 12 13  1  0  0  0
 12 28  1  0  0  0
 13 14  1  0  0  0
 13 40  1  0  0  0
 14 15  2  0  0  0
 14 16  1  0  0  0
 16 17  1  0  0  0
 16 41  1  0  0  0
 17 18  2  0  0  0
 17 23  1  0  0  0
 18 19  1  0  0  0
 18 42  1  0  0  0
 19 20  2  0  0  0
 19 43  1  0  0  0
 20 21  1  0  0  0
 20 22  1  0  0  0
 22 23  2  0  0  0
 22 24  1  0  0  0
 23 44  1  0  0  0
 24 25  1  0  0  0
 24 26  1  0  0  0
 24 27  1  0  0  0
 28 29  2  0  0  0
 28 45  1  0  0  0
 29 46  1  0  0  0
 30 31  1  0  0  0
 30 47  1  0  0  0
 31 32  2  0  0  0
 31 48  1  0  0  0
M  END
> <chembl_id>
CHEMBL1336

> <chembl_pref_name>
SORAFENIB

> <s_m_source_file>
sdf/inactives_sanitized.sdf

> <i_m_source_file_index>
132

> <i_lp_mmshare_version>
49012

> <i_m_ct_stereo_status>
1

> <i_f3d_flags>
0

> <s_epik_input>
W0NIM11bTkhdQyg9TyljMVtjSF1jKFtjSF1bY0hdbjEpT2MyW2NIXVtjSF1jKFtjSF1bY0hdMilbTkhdQyg9TylbTkhdYzNbY0hdW2NIXWMoQ2wpYyhbY0hdMylDKEYpKEYpRg==

> <s_epik_cmdline>
J2VwaWtfcHl0aG9uJywgJy1waHQnLCAnMC41JywgJy1waCcsICc3LjUnLCAnLW50JywgJy1tYScsICcyMDAnLCAnLWltYWUnLCAnPGluZmlsZS5tYWU+JywgJy1vbWFlJywgJzxvdXRmaWxlLm1hZT4n

> <r_lp_tautomer_probability>
1

> <r_epik_Ionization_Penalty>
  0.0049

> <r_epik_Ionization_Penalty_Charging>
  0.0000

> <r_epik_Ionization_Penalty_Neutral>
  0.0049

> <r_epik_State_Penalty>
 -0.0000

> <r_epik_Charging_Adjusted_Penalty>
0

> <i_epik_Tot_Q>
0

> <i_epik_Tot_abs_Q>
0

> <s_lp_Force_Field>
OPLS3e

> <r_lp_Energy>
49.624686

> <b_lp_Chiralities_Consistent>
1

> <s_lp_Variant>
sdf/inactives_sanitized.sdf:132-1

$$$$
sdf/inactives_sanitized.sdf:133
                    3D
 Schrodinger Suite 2020-1.
 45 47  0  0  1  0            999 V2000
   -0.4357    1.8603   -0.8020 O   0  0  0  0  0  0
    4.0295   -0.4184    1.5804 O   0  0  0  0  0  0
    0.0207   -0.2198   -0.0220 N   0  0  0  0  0  0
   -9.2987   -0.8066    0.3256 N   0  0  0  0  0  0
   -2.3037    0.4710   -0.2516 C   0  0  0  0  0  0
   -5.0690   -0.0352   -0.0218 C   0  0  0  0  0  0
   -0.8247    0.7662   -0.3877 C   0  0  0  0  0  0
   -6.5305   -0.3018    0.0987 C   0  0  0  0  0  0
    1.4888   -0.1684   -0.0660 C   0  0  2  0  0  0
   -3.2260    1.5252   -0.2567 C   0  0  0  0  0  0
   -2.7833   -0.8424   -0.1337 C   0  0  0  0  0  0
   -4.5904    1.2739   -0.1422 C   0  0  0  0  0  0
   -4.1486   -1.0888   -0.0186 C   0  0  0  0  0  0
    2.0688    0.1186   -1.4591 C   0  0  0  0  0  0
   -7.0198   -1.2710    0.9880 C   0  0  0  0  0  0
   -7.4625    0.4079   -0.6744 C   0  0  0  0  0  0
    2.0804   -1.4613    0.5505 C   0  0  0  0  0  0
    3.0684    1.0857   -1.6086 C   0  0  0  0  0  0
    1.5917   -0.5653   -2.5841 C   0  0  0  0  0  0
   -8.3961   -1.4906    1.0717 C   0  0  0  0  0  0
   -8.8233    0.1287   -0.5337 C   0  0  0  0  0  0
    3.5900    1.3630   -2.8693 C   0  0  0  0  0  0
    2.1124   -0.2869   -3.8447 C   0  0  0  0  0  0
    3.1097    0.6757   -3.9816 C   0  0  0  0  0  0
    3.6112   -1.4783    0.7448 C   0  0  0  0  0  0
    4.9859   -0.4502    1.6594 H   0  0  0  0  0  0
   -0.3729   -1.0145    0.4596 H   0  0  0  0  0  0
    1.7613    0.6562    0.5970 H   0  0  0  0  0  0
   -2.8957    2.5506   -0.3462 H   0  0  0  0  0  0
   -2.1103   -1.6877   -0.1368 H   0  0  0  0  0  0
   -5.2763    2.1087   -0.1421 H   0  0  0  0  0  0
   -4.4889   -2.1109    0.0639 H   0  0  0  0  0  0
   -6.3478   -1.8427    1.6116 H   0  0  0  0  0  0
   -7.1411    1.1603   -1.3797 H   0  0  0  0  0  0
    1.6137   -1.6481    1.5195 H   0  0  0  0  0  0
    1.8009   -2.3146   -0.0696 H   0  0  0  0  0  0
    3.4426    1.6231   -0.7492 H   0  0  0  0  0  0
    0.8169   -1.3112   -2.4823 H   0  0  0  0  0  0
   -8.7953   -2.2293    1.7509 H   0  0  0  0  0  0
   -9.5577    0.6606   -1.1207 H   0  0  0  0  0  0
    4.3622    2.1093   -2.9847 H   0  0  0  0  0  0
    1.7437   -0.8135   -4.7125 H   0  0  0  0  0  0
    3.5130    0.8924   -4.9598 H   0  0  0  0  0  0
    4.1196   -1.3402   -0.2098 H   0  0  0  0  0  0
    3.9445   -2.4290    1.1620 H   0  0  0  0  0  0
  1  7  2  0  0  0
  2 25  1  0  0  0
  2 26  1  0  0  0
  3  7  1  0  0  0
  3  9  1  0  0  0
  3 27  1  0  0  0
  4 20  2  0  0  0
  4 21  1  0  0  0
  5  7  1  0  0  0
  5 10  2  0  0  0
  5 11  1  0  0  0
  6  8  1  0  0  0
  6 12  2  0  0  0
  6 13  1  0  0  0
  8 15  2  0  0  0
  8 16  1  0  0  0
  9 14  1  0  0  0
  9 17  1  0  0  0
  9 28  1  0  0  0
 10 12  1  0  0  0
 10 29  1  0  0  0
 11 13  2  0  0  0
 11 30  1  0  0  0
 12 31  1  0  0  0
 13 32  1  0  0  0
 14 18  2  0  0  0
 14 19  1  0  0  0
 15 20  1  0  0  0
 15 33  1  0  0  0
 16 21  2  0  0  0
 16 34  1  0  0  0
 17 25  1  0  0  0
 17 35  1  0  0  0
 17 36  1  0  0  0
 18 22  1  0  0  0
 18 37  1  0  0  0
 19 23  2  0  0  0
 19 38  1  0  0  0
 20 39  1  0  0  0
 21 40  1  0  0  0
 22 24  2  0  0  0
 22 41  1  0  0  0
 23 24  1  0  0  0
 23 42  1  0  0  0
 24 43  1  0  0  0
 25 44  1  0  0  0
 25 45  1  0  0  0
M  END
> <chembl_id>
CHEMBL1986143

> <chembl_pref_name>
None

> <s_m_source_file>
sdf/inactives_sanitized.sdf

> <i_m_source_file_index>
133

> <i_lp_mmshare_version>
49012

> <i_m_ct_stereo_status>
1

> <i_f3d_flags>
0

> <s_epik_input>
W2NIXTFbY0hdW2NIXVtjSF1bY0hdYzFbQ0BIXShbQ0gyXVtDSDJdW09IXSlbTkhdQyg9TyljMltjSF1bY0hdYyhbY0hdW2NIXTIpLWMzW2NIXVtjSF1uW2NIXVtjSF0z

> <s_epik_cmdline>
J2VwaWtfcHl0aG9uJywgJy1waHQnLCAnMC41JywgJy1waCcsICc3LjUnLCAnLW50JywgJy1tYScsICcyMDAnLCAnLWltYWUnLCAnPGluZmlsZS5tYWU+JywgJy1vbWFlJywgJzxvdXRmaWxlLm1hZT4n

> <r_lp_tautomer_probability>
1

> <r_epik_Ionization_Penalty>
  0.0017

> <r_epik_Ionization_Penalty_Charging>
  0.0000

> <r_epik_Ionization_Penalty_Neutral>
  0.0017

> <r_epik_State_Penalty>
 -0.0000

> <r_epik_Charging_Adjusted_Penalty>
0

> <i_epik_Tot_Q>
0

> <i_epik_Tot_abs_Q>
0

> <s_lp_Force_Field>
OPLS3e

> <r_lp_Energy>
37.802331

> <b_lp_Chiralities_Consistent>
1

> <s_lp_Variant>
sdf/inactives_sanitized.sdf:133-1

$$$$
sdf/inactives_sanitized.sdf:134
                    3D
 Schrodinger Suite 2020-1.
 41 43  0  0  1  0            999 V2000
    4.4418    2.7097    0.3255 Cl  0  0  0  0  0  0
   -0.0401    0.2176   -0.1750 O   0  0  0  0  0  0
    9.5123   -0.4076    3.8267 O   0  0  0  0  0  0
    7.8795    0.6479    4.9010 O   0  5  0  0  0  0
    6.1847   -0.6892    1.3844 N   0  3  2  0  0  0
    7.6779    0.4045    2.5363 C   0  0  2  0  0  0
    4.1503    0.0001   -0.0225 C   0  0  0  0  0  0
    6.1481    0.2721    2.5800 C   0  0  0  0  0  0
    7.7078   -0.7728    1.5496 C   0  0  0  0  0  0
    5.6651   -0.1736    0.0270 C   0  0  0  0  0  0
    3.5300    1.2534    0.1146 C   0  0  0  0  0  0
    1.3405    0.2107   -0.1250 C   0  0  0  0  0  0
    3.3568   -1.1315   -0.2316 C   0  0  0  0  0  0
    8.4142    0.1900    3.8672 C   0  0  0  0  0  0
    2.1376    1.3510    0.0657 C   0  0  0  0  0  0
    1.9682   -1.0258   -0.2780 C   0  0  0  0  0  0
   -0.7396    1.4472   -0.0037 C   0  0  0  0  0  0
   -2.2334    1.1704   -0.0166 C   0  0  0  0  0  0
   -2.9313    1.0430    1.1877 C   0  0  0  0  0  0
   -2.9049    1.0320   -1.2344 C   0  0  0  0  0  0
   -4.2988    0.7810    1.1738 C   0  0  0  0  0  0
   -4.2726    0.7701   -1.2475 C   0  0  0  0  0  0
   -4.9630    0.6454   -0.0435 C   0  0  0  0  0  0
    8.0403    1.3491    2.1287 H   0  0  0  0  0  0
    5.5626    1.1574    2.3381 H   0  0  0  0  0  0
    5.7197   -0.2789    3.4199 H   0  0  0  0  0  0
    7.9317   -1.7600    1.9594 H   0  0  0  0  0  0
    8.1978   -0.6083    0.5887 H   0  0  0  0  0  0
    6.2183    0.7426   -0.1833 H   0  0  0  0  0  0
    5.9942   -0.9430   -0.6736 H   0  0  0  0  0  0
    3.8153   -2.1029   -0.3492 H   0  0  0  0  0  0
    1.6886    2.3266    0.1745 H   0  0  0  0  0  0
    1.3730   -1.9142   -0.4318 H   0  0  0  0  0  0
   -0.4643    1.9243    0.9392 H   0  0  0  0  0  0
   -0.4920    2.1467   -0.8048 H   0  0  0  0  0  0
   -2.4174    1.1438    2.1326 H   0  0  0  0  0  0
   -2.3693    1.1245   -2.1682 H   0  0  0  0  0  0
   -4.8416    0.6817    2.1024 H   0  0  0  0  0  0
   -4.7958    0.6625   -2.1864 H   0  0  0  0  0  0
   -6.0234    0.4404   -0.0538 H   0  0  0  0  0  0
    5.7450   -1.5699    1.6118 H   0  0  0  0  0  0
  1 11  1  0  0  0
  2 12  1  0  0  0
  2 17  1  0  0  0
  3 14  2  0  0  0
  4 14  1  0  0  0
  5  8  1  0  0  0
  5  9  1  0  0  0
  5 10  1  0  0  0
  5 41  1  0  0  0
  6  8  1  0  0  0
  6  9  1  0  0  0
  6 14  1  0  0  0
  6 24  1  0  0  0
  7 10  1  0  0  0
  7 11  2  0  0  0
  7 13  1  0  0  0
  8 25  1  0  0  0
  8 26  1  0  0  0
  9 27  1  0  0  0
  9 28  1  0  0  0
 10 29  1  0  0  0
 10 30  1  0  0  0
 11 15  1  0  0  0
 12 15  2  0  0  0
 12 16  1  0  0  0
 13 16  2  0  0  0
 13 31  1  0  0  0
 15 32  1  0  0  0
 16 33  1  0  0  0
 17 18  1  0  0  0
 17 34  1  0  0  0
 17 35  1  0  0  0
 18 19  2  0  0  0
 18 20  1  0  0  0
 19 21  1  0  0  0
 19 36  1  0  0  0
 20 22  2  0  0  0
 20 37  1  0  0  0
 21 23  2  0  0  0
 21 38  1  0  0  0
 22 23  1  0  0  0
 22 39  1  0  0  0
 23 40  1  0  0  0
M  CHG  2   4  -1   5   1
M  END
> <chembl_id>
CHEMBL1987998

> <chembl_pref_name>
None

> <s_m_source_file>
sdf/inactives_sanitized.sdf

> <i_m_source_file_index>
134

> <i_lp_mmshare_version>
49012

> <i_m_ct_stereo_status>
1

> <i_f3d_flags>
0

> <s_epik_input>
Tz1DKFtPSF0pW0NIXShbQ0gyXTEpW0NIMl1OMVtDSDJdYzJjKENsKVtjSF1jKFtjSF1bY0hdMilPW0NIMl1jM1tjSF1bY0hdW2NIXVtjSF1bY0hdMw==

> <s_epik_cmdline>
J2VwaWtfcHl0aG9uJywgJy1waHQnLCAnMC41JywgJy1waCcsICc3LjUnLCAnLW50JywgJy1tYScsICcyMDAnLCAnLWltYWUnLCAnPGluZmlsZS5tYWU+JywgJy1vbWFlJywgJzxvdXRmaWxlLm1hZT4n

> <r_lp_tautomer_probability>
1

> <r_epik_Ionization_Penalty>
  0.0379

> <r_epik_Ionization_Penalty_Charging>
  0.0379

> <r_epik_Ionization_Penalty_Neutral>
  0.0000

> <r_epik_State_Penalty>
  0.0318

> <r_epik_Charging_Adjusted_Penalty>
0.0696780207220511

> <i_epik_Tot_Q>
0

> <i_epik_Tot_abs_Q>
2

> <s_lp_Force_Field>
OPLS3e

> <r_lp_Energy>
31.772818

> <b_lp_Chiralities_Consistent>
1

> <s_lp_Variant>
sdf/inactives_sanitized.sdf:134-1

$$$$
sdf/inactives_sanitized.sdf:135
                    3D
 Schrodinger Suite 2020-1.
 57 59  0  0  1  0            999 V2000
   -1.6784    2.9198    1.0770 N   0  0  0  0  0  0
   -0.7761    2.3381    0.2815 C   0  0  0  0  0  0
    0.3022    2.8655    0.0131 O   0  0  0  0  0  0
   -1.1356    1.0253   -0.2126 C   0  0  0  0  0  0
   -0.2262   -0.0127   -0.4508 C   0  0  0  0  0  0
    1.1364   -0.0237   -0.1601 N   0  0  0  0  0  0
    2.0865   -0.7902   -0.7314 C   0  0  0  0  0  0
    1.8924   -1.6774   -1.5651 O   0  0  0  0  0  0
    3.3017   -0.4782   -0.2499 N   0  0  0  0  0  0
    4.5330   -1.2399   -0.4766 C   0  0  0  0  0  0
    4.8128   -2.3128    0.5979 C   0  0  0  0  0  0
    3.7385   -3.4112    0.7116 C   0  0  0  0  0  0
    4.1359   -4.5303    1.6871 C   0  0  0  0  0  0
    2.9663   -5.5207    1.8666 N   0  3  0  0  0  0
    2.6092   -6.3395    0.6093 C   0  0  0  0  0  0
    2.0071   -7.6509    1.1317 C   0  0  0  0  0  0
    2.1873   -7.6528    2.6498 C   0  0  0  0  0  0
    3.2359   -6.5848    2.9415 C   0  0  0  0  0  0
   -1.0795   -1.3990   -1.0756 S   0  0  0  0  0  0
   -2.5718   -0.5885   -1.1356 N   0  0  0  0  0  0
   -2.4222    0.6296   -0.6504 C   0  0  0  0  0  0
   -3.5271    1.4534   -0.6156 O   0  0  0  0  0  0
   -4.7491    0.9074   -0.0961 C   0  0  0  0  0  0
   -4.5973    0.3897    1.3351 C   0  0  0  0  0  0
   -4.5801   -0.9865    1.6005 C   0  0  0  0  0  0
   -4.7162   -1.8838    0.5972 F   0  0  0  0  0  0
   -4.4193   -1.4473    2.9071 C   0  0  0  0  0  0
   -4.2803   -0.5408    3.9571 C   0  0  0  0  0  0
   -4.0554   -1.1735    5.7379 Br  0  0  0  0  0  0
   -4.3079    0.8295    3.7016 C   0  0  0  0  0  0
   -4.4683    1.2944    2.3963 C   0  0  0  0  0  0
   -4.4955    2.6273    2.1660 F   0  0  0  0  0  0
   -1.4860    3.8232    1.4847 H   0  0  0  0  0  0
   -2.5700    2.4778    1.2479 H   0  0  0  0  0  0
    1.4461    0.6872    0.4865 H   0  0  0  0  0  0
    3.3993    0.3687    0.2912 H   0  0  0  0  0  0
    4.4878   -1.7153   -1.4589 H   0  0  0  0  0  0
    5.3646   -0.5355   -0.5183 H   0  0  0  0  0  0
    5.7717   -2.7797    0.3677 H   0  0  0  0  0  0
    4.9457   -1.8282    1.5665 H   0  0  0  0  0  0
    2.7954   -2.9733    1.0402 H   0  0  0  0  0  0
    3.5542   -3.8346   -0.2767 H   0  0  0  0  0  0
    4.9965   -5.1093    1.3479 H   0  0  0  0  0  0
    4.3299   -4.1410    2.6879 H   0  0  0  0  0  0
    1.9388   -5.7334   -0.0014 H   0  0  0  0  0  0
    3.5433   -6.5174    0.0733 H   0  0  0  0  0  0
    0.9536   -7.7365    0.8617 H   0  0  0  0  0  0
    2.5230   -8.5008    0.6827 H   0  0  0  0  0  0
    1.2502   -7.3983    3.1475 H   0  0  0  0  0  0
    2.4965   -8.6314    3.0197 H   0  0  0  0  0  0
    3.1664   -6.1111    3.9215 H   0  0  0  0  0  0
    4.2579   -6.9357    2.7838 H   0  0  0  0  0  0
   -5.4917    1.7061   -0.0988 H   0  0  0  0  0  0
   -5.1508    0.1500   -0.7716 H   0  0  0  0  0  0
   -4.4024   -2.5091    3.1039 H   0  0  0  0  0  0
   -4.2053    1.5330    4.5148 H   0  0  0  0  0  0
    2.1545   -4.9913    2.1528 H   0  0  0  0  0  0
  1  2  1  0  0  0
  1 33  1  0  0  0
  1 34  1  0  0  0
  2  3  2  0  0  0
  2  4  1  0  0  0
  4  5  2  0  0  0
  4 21  1  0  0  0
  5  6  1  0  0  0
  5 19  1  0  0  0
  6  7  1  0  0  0
  6 35  1  0  0  0
  7  8  2  0  0  0
  7  9  1  0  0  0
  9 10  1  0  0  0
  9 36  1  0  0  0
 10 11  1  0  0  0
 10 37  1  0  0  0
 10 38  1  0  0  0
 11 12  1  0  0  0
 11 39  1  0  0  0
 11 40  1  0  0  0
 12 13  1  0  0  0
 12 41  1  0  0  0
 12 42  1  0  0  0
 13 14  1  0  0  0
 13 43  1  0  0  0
 13 44  1  0  0  0
 14 15  1  0  0  0
 14 18  1  0  0  0
 14 57  1  0  0  0
 15 16  1  0  0  0
 15 45  1  0  0  0
 15 46  1  0  0  0
 16 17  1  0  0  0
 16 47  1  0  0  0
 16 48  1  0  0  0
 17 18  1  0  0  0
 17 49  1  0  0  0
 17 50  1  0  0  0
 18 51  1  0  0  0
 18 52  1  0  0  0
 19 20  1  0  0  0
 20 21  2  0  0  0
 21 22  1  0  0  0
 22 23  1  0  0  0
 23 24  1  0  0  0
 23 53  1  0  0  0
 23 54  1  0  0  0
 24 25  2  0  0  0
 24 31  1  0  0  0
 25 26  1  0  0  0
 25 27  1  0  0  0
 27 28  2  0  0  0
 27 55  1  0  0  0
 28 29  1  0  0  0
 28 30  1  0  0  0
 30 31  2  0  0  0
 30 56  1  0  0  0
 31 32  1  0  0  0
M  CHG  1  14   1
M  END
> <chembl_id>
CHEMBL253969

> <chembl_pref_name>
OSI-632

> <s_m_source_file>
sdf/inactives_sanitized.sdf

> <i_m_source_file_index>
135

> <i_lp_mmshare_version>
49012

> <i_m_ct_stereo_status>
1

> <i_f3d_flags>
0

> <s_epik_input>
RmMxW2NIXWMoQnIpW2NIXWMoRiljMVtDSDJdT2MybnNjKGMyQyg9TylbTkgyXSlbTkhdQyg9TylbTkhdW0NIMl1bQ0gyXVtDSDJdW0NIMl1OM1tDSDJdW0NIMl1bQ0gyXVtDSDJdMw==

> <s_epik_cmdline>
J2VwaWtfcHl0aG9uJywgJy1waHQnLCAnMC41JywgJy1waCcsICc3LjUnLCAnLW50JywgJy1tYScsICcyMDAnLCAnLWltYWUnLCAnPGluZmlsZS5tYWU+JywgJy1vbWFlJywgJzxvdXRmaWxlLm1hZT4n

> <r_lp_tautomer_probability>
1

> <r_epik_Ionization_Penalty>
  0.0017

> <r_epik_Ionization_Penalty_Charging>
  0.0012

> <r_epik_Ionization_Penalty_Neutral>
  0.0005

> <r_epik_State_Penalty>
 -0.0000

> <r_epik_Charging_Adjusted_Penalty>
0.00116489147669029

> <i_epik_Tot_Q>
1

> <i_epik_Tot_abs_Q>
1

> <s_lp_Force_Field>
OPLS3e

> <r_lp_Energy>
29.869263

> <b_lp_Chiralities_Consistent>
1

> <s_lp_Variant>
sdf/inactives_sanitized.sdf:135-1

$$$$
sdf/inactives_sanitized.sdf:136
                    3D
 Schrodinger Suite 2020-1.
 37 40  0  0  1  0            999 V2000
   -0.7275    5.9835    0.1483 F   0  0  0  0  0  0
   -0.5330    4.6467    0.0903 C   0  0  0  0  0  0
   -0.6053    3.9841   -1.1353 C   0  0  0  0  0  0
   -0.4069    2.6045   -1.1963 C   0  0  0  0  0  0
   -0.1320    1.8853   -0.0303 C   0  0  0  0  0  0
    0.1081    0.1347   -0.1270 S   0  0  0  0  0  0
    1.9017    0.0699   -0.1330 C   0  0  0  0  0  0
    2.5829   -0.5380    0.9925 C   0  0  0  0  0  0
    3.9324   -0.5794    1.0304 C   0  0  0  0  0  0
    4.6882    0.0014   -0.0811 C   0  0  0  0  0  0
    6.0506    0.0289   -0.1893 C   0  0  0  0  0  0
    6.9188   -0.5619    0.8654 C   0  0  0  0  0  0
    7.3020   -1.9149    0.8020 C   0  0  0  0  0  0
    6.7816   -2.9419   -0.4920 Cl  0  0  0  0  0  0
    8.1164   -2.4633    1.7937 C   0  0  0  0  0  0
    8.5562   -1.6780    2.8559 C   0  0  0  0  0  0
    8.1812   -0.3394    2.9313 C   0  0  0  0  0  0
    7.3668    0.2208    1.9462 C   0  0  0  0  0  0
    6.9277    1.8894    2.0968 Cl  0  0  0  0  0  0
    6.6962    0.6516   -1.3732 C   0  0  0  0  0  0
    7.9257    0.6528   -1.4350 O   0  0  0  0  0  0
    5.8193    1.1966   -2.3395 N   0  0  0  0  0  0
    4.5437    1.1448   -2.1946 C   0  0  0  0  0  0
    3.9041    0.5667   -1.1018 N   0  0  0  0  0  0
    2.5523    0.5989   -1.1203 N   0  0  0  0  0  0
   -0.0623    2.5494    1.2007 C   0  0  0  0  0  0
    0.1976    1.8681    2.3414 F   0  0  0  0  0  0
   -0.2616    3.9298    1.2563 C   0  0  0  0  0  0
   -0.8163    4.5387   -2.0379 H   0  0  0  0  0  0
   -0.4642    2.0981   -2.1490 H   0  0  0  0  0  0
    2.0255   -0.9652    1.8132 H   0  0  0  0  0  0
    4.4358   -1.0334    1.8714 H   0  0  0  0  0  0
    8.4095   -3.5018    1.7414 H   0  0  0  0  0  0
    9.1868   -2.1070    3.6206 H   0  0  0  0  0  0
    8.5246    0.2647    3.7585 H   0  0  0  0  0  0
    3.8837    1.5672   -2.9491 H   0  0  0  0  0  0
   -0.2073    4.4447    2.2042 H   0  0  0  0  0  0
  1  2  1  0  0  0
  2  3  2  0  0  0
  2 28  1  0  0  0
  3  4  1  0  0  0
  3 29  1  0  0  0
  4  5  2  0  0  0
  4 30  1  0  0  0
  5  6  1  0  0  0
  5 26  1  0  0  0
  6  7  1  0  0  0
  7 25  2  0  0  0
  7  8  1  0  0  0
  8  9  2  0  0  0
  8 31  1  0  0  0
  9 10  1  0  0  0
  9 32  1  0  0  0
 10 11  2  0  0  0
 10 24  1  0  0  0
 11 20  1  0  0  0
 11 12  1  0  0  0
 12 13  2  0  0  0
 12 18  1  0  0  0
 13 14  1  0  0  0
 13 15  1  0  0  0
 15 16  2  0  0  0
 15 33  1  0  0  0
 16 17  1  0  0  0
 16 34  1  0  0  0
 17 18  2  0  0  0
 17 35  1  0  0  0
 18 19  1  0  0  0
 20 21  2  0  0  0
 20 22  1  0  0  0
 22 23  2  0  0  0
 23 24  1  0  0  0
 23 36  1  0  0  0
 24 25  1  0  0  0
 26 28  2  0  0  0
 26 27  1  0  0  0
 28 37  1  0  0  0
M  END
> <chembl_id>
CHEMBL119385

> <chembl_pref_name>
NEFLAMAPIMOD

> <s_m_source_file>
sdf/inactives_sanitized.sdf

> <i_m_source_file_index>
136

> <i_lp_mmshare_version>
49012

> <i_m_ct_stereo_status>
1

> <i_f3d_flags>
0

> <s_epik_input>
RmMxW2NIXVtjSF1jKGMoRilbY0hdMSlTYyhbY0hdW2NIXTIpbm4oYzIzKVtjSF1uYyg9TyljMy1jNGMoQ2wpW2NIXVtjSF1bY0hdYzRDbA==

> <s_epik_cmdline>
J2VwaWtfcHl0aG9uJywgJy1waHQnLCAnMC41JywgJy1waCcsICc3LjUnLCAnLW50JywgJy1tYScsICcyMDAnLCAnLWltYWUnLCAnPGluZmlsZS5tYWU+JywgJy1vbWFlJywgJzxvdXRmaWxlLm1hZT4n

> <r_lp_tautomer_probability>
1

> <r_epik_Ionization_Penalty>
  0.0000

> <r_epik_Ionization_Penalty_Charging>
  0.0000

> <r_epik_Ionization_Penalty_Neutral>
  0.0000

> <r_epik_State_Penalty>
 -0.0000

> <r_epik_Charging_Adjusted_Penalty>
0

> <i_epik_Tot_Q>
0

> <i_epik_Tot_abs_Q>
0

> <s_lp_Force_Field>
OPLS3e

> <r_lp_Energy>
57.372376

> <b_lp_Chiralities_Consistent>
1

> <s_lp_Variant>
sdf/inactives_sanitized.sdf:136-1

$$$$
sdf/inactives_sanitized.sdf:137
                    3D
 Schrodinger Suite 2020-1.
 51 56  0  0  1  0            999 V2000
    0.2473    0.2479   -0.0068 S   0  0  0  0  0  0
   11.9174   -0.5795    1.1547 O   0  0  0  0  0  0
   -0.9114   11.8902    1.5970 O   0  0  0  0  0  0
    7.0512   -0.2043    0.9568 N   0  0  0  0  0  0
   -0.4506    7.0078    1.2798 N   0  0  0  0  0  0
    7.0305   -0.2397   -1.2770 N   0  0  0  0  0  0
   -0.5691    7.0191   -0.9512 N   0  0  0  0  0  0
    6.2901   -0.1657   -0.1150 C   0  0  0  0  0  0
   -0.4351    6.2646    0.1175 C   0  0  0  0  0  0
    8.3341   -0.3103    0.4872 C   0  0  0  0  0  0
   -0.6004    8.3302    0.9347 C   0  0  0  0  0  0
    8.3572   -0.3358   -0.9284 C   0  0  0  0  0  0
   -0.6726    8.3010   -0.4790 C   0  0  0  0  0  0
    4.7928   -0.0593   -0.0887 C   0  0  0  0  0  0
   -0.2759    4.7724    0.0870 C   0  0  0  0  0  0
    9.5373   -0.3911    1.2036 C   0  0  0  0  0  0
   -0.6784    9.5186    1.6663 C   0  0  0  0  0  0
    9.5450   -0.4399   -1.6576 C   0  0  0  0  0  0
   -0.8296    9.4992   -1.1901 C   0  0  0  0  0  0
    2.0071    0.1292   -0.0384 C   0  0  0  0  0  0
    0.0374    1.9987    0.0293 C   0  0  0  0  0  0
   10.7279   -0.4967    0.4816 C   0  0  0  0  0  0
   -0.8324   10.6970    0.9304 C   0  0  0  0  0  0
    4.1050   -0.0245    1.1323 C   0  0  0  0  0  0
   -0.2079    4.0909   -1.1358 C   0  0  0  0  0  0
   -0.1892    4.0431    1.2806 C   0  0  0  0  0  0
    4.0638    0.0035   -1.2841 C   0  0  0  0  0  0
   10.7265   -0.5200   -0.9151 C   0  0  0  0  0  0
   -0.9071   10.6894   -0.4647 C   0  0  0  0  0  0
    2.7163    0.0691    1.1590 C   0  0  0  0  0  0
   -0.0520    2.7079   -1.1663 C   0  0  0  0  0  0
   -0.0333    2.6600    1.2534 C   0  0  0  0  0  0
    2.6749    0.0969   -1.2605 C   0  0  0  0  0  0
   11.8097   -0.5579    2.1082 H   0  0  0  0  0  0
   -1.0128   12.6402    1.0065 H   0  0  0  0  0  0
   -0.3598    6.6016    2.1995 H   0  0  0  0  0  0
    9.5420   -0.3734    2.2836 H   0  0  0  0  0  0
   -0.6218    9.5318    2.7450 H   0  0  0  0  0  0
    9.5584   -0.4594   -2.7374 H   0  0  0  0  0  0
   -0.8883    9.5055   -2.2687 H   0  0  0  0  0  0
    4.6420   -0.0714    2.0687 H   0  0  0  0  0  0
   -0.2721    4.6286   -2.0707 H   0  0  0  0  0  0
   -0.2394    4.5406    2.2378 H   0  0  0  0  0  0
    4.5655   -0.0204   -2.2402 H   0  0  0  0  0  0
   11.6663   -0.6031   -1.4420 H   0  0  0  0  0  0
   -1.0266   11.6204   -0.9998 H   0  0  0  0  0  0
    2.1968    0.0954    2.1060 H   0  0  0  0  0  0
    0.0027    2.1936   -2.1148 H   0  0  0  0  0  0
    0.0361    2.1082    2.1796 H   0  0  0  0  0  0
    2.1234    0.1451   -2.1882 H   0  0  0  0  0  0
    6.6193   -0.2245   -2.1989 H   0  0  0  0  0  0
  1 20  1  0  0  0
  1 21  1  0  0  0
  2 22  1  0  0  0
  2 34  1  0  0  0
  3 23  1  0  0  0
  3 35  1  0  0  0
  4  8  2  0  0  0
  4 10  1  0  0  0
  5  9  1  0  0  0
  5 11  1  0  0  0
  5 36  1  0  0  0
  6  8  1  0  0  0
  6 12  1  0  0  0
  6 51  1  0  0  0
  7  9  2  0  0  0
  7 13  1  0  0  0
  8 14  1  0  0  0
  9 15  1  0  0  0
 10 12  2  0  0  0
 10 16  1  0  0  0
 11 13  2  0  0  0
 11 17  1  0  0  0
 12 18  1  0  0  0
 13 19  1  0  0  0
 14 24  2  0  0  0
 14 27  1  0  0  0
 15 25  2  0  0  0
 15 26  1  0  0  0
 16 22  2  0  0  0
 16 37  1  0  0  0
 17 23  2  0  0  0
 17 38  1  0  0  0
 18 28  2  0  0  0
 18 39  1  0  0  0
 19 29  2  0  0  0
 19 40  1  0  0  0
 20 30  2  0  0  0
 20 33  1  0  0  0
 21 31  2  0  0  0
 21 32  1  0  0  0
 22 28  1  0  0  0
 23 29  1  0  0  0
 24 30  1  0  0  0
 24 41  1  0  0  0
 25 31  1  0  0  0
 25 42  1  0  0  0
 26 32  2  0  0  0
 26 43  1  0  0  0
 27 33  2  0  0  0
 27 44  1  0  0  0
 28 45  1  0  0  0
 29 46  1  0  0  0
 30 47  1  0  0  0
 31 48  1  0  0  0
 32 49  1  0  0  0
 33 50  1  0  0  0
M  END
> <chembl_id>
CHEMBL2001149

> <chembl_pref_name>
None

> <s_m_source_file>
sdf/inactives_sanitized.sdf

> <i_m_source_file_index>
137

> <i_lp_mmshare_version>
49012

> <i_m_ct_stereo_status>
1

> <i_f3d_flags>
0

> <s_epik_input>
W09IXWMoW2NIXTEpW2NIXVtjSF1jKGMxMiluYyhbbkhdMiktYzNbY0hdW2NIXWMoW2NIXVtjSF0zKVNjKFtjSF1bY0hdNClbY0hdW2NIXWM0LWMoW25IXTUpbmMoYzU2KVtjSF1bY0hdYyhbT0hdKVtjSF02

> <s_epik_cmdline>
J2VwaWtfcHl0aG9uJywgJy1waHQnLCAnMC41JywgJy1waCcsICc3LjUnLCAnLW50JywgJy1tYScsICcyMDAnLCAnLWltYWUnLCAnPGluZmlsZS5tYWU+JywgJy1vbWFlJywgJzxvdXRmaWxlLm1hZT4n

> <r_epik_Ionization_Penalty>
  0.2163

> <r_epik_Ionization_Penalty_Charging>
  0.0000

> <r_epik_Ionization_Penalty_Neutral>
  0.2163

> <r_epik_State_Penalty>
  0.3680

> <r_epik_Charging_Adjusted_Penalty>
0.367961835084566

> <i_epik_Tot_Q>
0

> <i_epik_Tot_abs_Q>
0

> <s_lp_Force_Field>
OPLS3e

> <r_lp_Energy>
38.68607

> <b_lp_Chiralities_Consistent>
1

> <s_lp_Variant>
sdf/inactives_sanitized.sdf:137-1

$$$$
sdf/inactives_sanitized.sdf:137
                    3D
 Schrodinger Suite 2020-1.
 51 56  0  0  1  0            999 V2000
    0.2486    0.2526   -0.0038 S   0  0  0  0  0  0
   11.9190   -0.5844    1.1538 O   0  0  0  0  0  0
   -1.0018   11.8838   -1.1439 O   0  0  0  0  0  0
    7.0527   -0.2072    0.9573 N   0  0  0  0  0  0
   -0.5204    7.0282   -0.9546 N   0  0  0  0  0  0
    7.0310   -0.2450   -1.2764 N   0  0  0  0  0  0
   -0.4854    7.0091    1.2792 N   0  0  0  0  0  0
    6.2912   -0.1688   -0.1142 C   0  0  0  0  0  0
   -0.4269    6.2699    0.1158 C   0  0  0  0  0  0
    8.3353   -0.3142    0.4875 C   0  0  0  0  0  0
   -0.6413    8.3086   -0.4825 C   0  0  0  0  0  0
    8.3578   -0.3401   -0.9282 C   0  0  0  0  0  0
   -0.6227    8.3326    0.9333 C   0  0  0  0  0  0
    4.7941   -0.0600   -0.0872 C   0  0  0  0  0  0
   -0.2698    4.7774    0.0866 C   0  0  0  0  0  0
    9.5387   -0.3956    1.2033 C   0  0  0  0  0  0
   -0.7709    9.5090   -1.1958 C   0  0  0  0  0  0
    9.5453   -0.4436   -1.6577 C   0  0  0  0  0  0
   -0.7295    9.5186    1.6651 C   0  0  0  0  0  0
    2.0086    0.1327   -0.0358 C   0  0  0  0  0  0
    0.0397    2.0034    0.0310 C   0  0  0  0  0  0
   10.7292   -0.5008    0.4810 C   0  0  0  0  0  0
   -0.8769   10.6978   -0.4713 C   0  0  0  0  0  0
    4.1071   -0.0199    1.1341 C   0  0  0  0  0  0
   -0.2033    4.0948   -1.1357 C   0  0  0  0  0  0
   -0.1842    4.0489    1.2808 C   0  0  0  0  0  0
    4.0645    0.0002   -1.2823 C   0  0  0  0  0  0
   10.7271   -0.5231   -0.9157 C   0  0  0  0  0  0
   -0.8568   10.6976    0.9256 C   0  0  0  0  0  0
    2.7185    0.0759    1.1614 C   0  0  0  0  0  0
   -0.0492    2.7116   -1.1652 C   0  0  0  0  0  0
   -0.0309    2.6655    1.2545 C   0  0  0  0  0  0
    2.6757    0.0954   -1.2582 C   0  0  0  0  0  0
   11.8120   -0.5668    2.1074 H   0  0  0  0  0  0
   -1.0593   12.6415   -0.5575 H   0  0  0  0  0  0
    9.5437   -0.3780    2.2834 H   0  0  0  0  0  0
   -0.7871    9.5156   -2.2760 H   0  0  0  0  0  0
    9.5586   -0.4626   -2.7376 H   0  0  0  0  0  0
   -0.7145    9.5319    2.7450 H   0  0  0  0  0  0
    4.6444   -0.0636    2.0704 H   0  0  0  0  0  0
   -0.2683    4.6311   -2.0714 H   0  0  0  0  0  0
   -0.2336    4.5467    2.2380 H   0  0  0  0  0  0
    4.5659   -0.0268   -2.2386 H   0  0  0  0  0  0
   11.6665   -0.6048   -1.4434 H   0  0  0  0  0  0
   -0.9412   11.6350    1.4566 H   0  0  0  0  0  0
    2.2005    0.1064    2.1089 H   0  0  0  0  0  0
    0.0042    2.1967   -2.1135 H   0  0  0  0  0  0
    0.0365    2.1139    2.1812 H   0  0  0  0  0  0
    2.1236    0.1412   -2.1857 H   0  0  0  0  0  0
    6.6193   -0.2311   -2.1980 H   0  0  0  0  0  0
   -0.4293    6.5994    2.2001 H   0  0  0  0  0  0
  1 20  1  0  0  0
  1 21  1  0  0  0
  2 22  1  0  0  0
  2 34  1  0  0  0
  3 23  1  0  0  0
  3 35  1  0  0  0
  4  8  2  0  0  0
  4 10  1  0  0  0
  5  9  2  0  0  0
  5 11  1  0  0  0
  6  8  1  0  0  0
  6 12  1  0  0  0
  6 50  1  0  0  0
  7  9  1  0  0  0
  7 13  1  0  0  0
  7 51  1  0  0  0
  8 14  1  0  0  0
  9 15  1  0  0  0
 10 12  2  0  0  0
 10 16  1  0  0  0
 11 13  2  0  0  0
 11 17  1  0  0  0
 12 18  1  0  0  0
 13 19  1  0  0  0
 14 24  2  0  0  0
 14 27  1  0  0  0
 15 25  2  0  0  0
 15 26  1  0  0  0
 16 22  2  0  0  0
 16 36  1  0  0  0
 17 23  2  0  0  0
 17 37  1  0  0  0
 18 28  2  0  0  0
 18 38  1  0  0  0
 19 29  2  0  0  0
 19 39  1  0  0  0
 20 30  2  0  0  0
 20 33  1  0  0  0
 21 31  2  0  0  0
 21 32  1  0  0  0
 22 28  1  0  0  0
 23 29  1  0  0  0
 24 30  1  0  0  0
 24 40  1  0  0  0
 25 31  1  0  0  0
 25 41  1  0  0  0
 26 32  2  0  0  0
 26 42  1  0  0  0
 27 33  2  0  0  0
 27 43  1  0  0  0
 28 44  1  0  0  0
 29 45  1  0  0  0
 30 46  1  0  0  0
 31 47  1  0  0  0
 32 48  1  0  0  0
 33 49  1  0  0  0
M  END
> <chembl_id>
CHEMBL2001149

> <chembl_pref_name>
None

> <s_m_source_file>
sdf/inactives_sanitized.sdf

> <i_m_source_file_index>
137

> <i_lp_mmshare_version>
49012

> <i_m_ct_stereo_status>
1

> <i_f3d_flags>
0

> <s_epik_input>
W09IXWMoW2NIXTEpW2NIXVtjSF1jKGMxMiluYyhbbkhdMiktYzNbY0hdW2NIXWMoW2NIXVtjSF0zKVNjKFtjSF1bY0hdNClbY0hdW2NIXWM0LWMoW25IXTUpbmMoYzU2KVtjSF1bY0hdYyhbT0hdKVtjSF02

> <s_epik_cmdline>
J2VwaWtfcHl0aG9uJywgJy1waHQnLCAnMC41JywgJy1waCcsICc3LjUnLCAnLW50JywgJy1tYScsICcyMDAnLCAnLWltYWUnLCAnPGluZmlsZS5tYWU+JywgJy1vbWFlJywgJzxvdXRmaWxlLm1hZT4n

> <r_epik_Ionization_Penalty>
  0.1853

> <r_epik_Ionization_Penalty_Charging>
  0.0000

> <r_epik_Ionization_Penalty_Neutral>
  0.1853

> <r_epik_State_Penalty>
  0.4567

> <r_epik_Charging_Adjusted_Penalty>
0.456718783668826

> <i_epik_Tot_Q>
0

> <i_epik_Tot_abs_Q>
0

> <s_lp_Force_Field>
OPLS3e

> <r_lp_Energy>
39.966813

> <b_lp_Chiralities_Consistent>
1

> <s_lp_Variant>
sdf/inactives_sanitized.sdf:137-2

$$$$
sdf/inactives_sanitized.sdf:138
                    3D
 Schrodinger Suite 2020-1.
 27 29  0  0  1  0            999 V2000
    6.0292    0.0120   -0.0048 Cl  0  0  0  0  0  0
   -2.8382   -3.5327   -0.0737 O   0  0  0  0  0  0
   -4.2854   -1.7452   -0.0213 N   0  0  0  0  0  0
   -2.1101   -1.1837   -0.0192 C   0  0  0  0  0  0
   -2.8088    0.0080    0.0127 C   0  0  0  0  0  0
    0.0056    0.0040   -0.0001 C   0  0  0  0  0  0
   -3.0734   -2.3268   -0.0428 C   0  0  0  0  0  0
   -0.7154   -1.2022   -0.0264 C   0  0  0  0  0  0
    1.5008    0.0053   -0.0035 C   0  0  0  0  0  0
   -2.1164    1.2169    0.0380 C   0  0  0  0  0  0
   -4.2782   -0.2893    0.0144 C   0  0  0  0  0  0
   -0.7193    1.2093    0.0313 C   0  0  0  0  0  0
    2.2165    1.0245   -0.6488 C   0  0  0  0  0  0
    2.2201   -1.0126    0.6401 C   0  0  0  0  0  0
    4.3031    0.0088   -0.0054 C   0  0  0  0  0  0
    3.6089    1.0279   -0.6516 C   0  0  0  0  0  0
    3.6123   -1.0124    0.6409 C   0  0  0  0  0  0
   -5.1467   -2.2719   -0.0273 H   0  0  0  0  0  0
   -0.1920   -2.1468   -0.0617 H   0  0  0  0  0  0
   -2.6440    2.1589    0.0658 H   0  0  0  0  0  0
   -4.7968    0.1183   -0.8542 H   0  0  0  0  0  0
   -4.7850    0.0745    0.9091 H   0  0  0  0  0  0
   -0.2022    2.1571    0.0634 H   0  0  0  0  0  0
    1.6977    1.8194   -1.1640 H   0  0  0  0  0  0
    1.7047   -1.8088    1.1570 H   0  0  0  0  0  0
    4.1448    1.8192   -1.1554 H   0  0  0  0  0  0
    4.1504   -1.8018    1.1449 H   0  0  0  0  0  0
  1 15  1  0  0  0
  2  7  2  0  0  0
  3  7  1  0  0  0
  3 11  1  0  0  0
  3 18  1  0  0  0
  4  5  2  0  0  0
  4  7  1  0  0  0
  4  8  1  0  0  0
  5 10  1  0  0  0
  5 11  1  0  0  0
  6  8  2  0  0  0
  6  9  1  0  0  0
  6 12  1  0  0  0
  8 19  1  0  0  0
  9 13  2  0  0  0
  9 14  1  0  0  0
 10 12  2  0  0  0
 10 20  1  0  0  0
 11 21  1  0  0  0
 11 22  1  0  0  0
 12 23  1  0  0  0
 13 16  1  0  0  0
 13 24  1  0  0  0
 14 17  2  0  0  0
 14 25  1  0  0  0
 15 16  2  0  0  0
 15 17  1  0  0  0
 16 26  1  0  0  0
 17 27  1  0  0  0
M  END
> <chembl_id>
CHEMBL2002202

> <chembl_pref_name>
None

> <s_m_source_file>
sdf/inactives_sanitized.sdf

> <i_m_source_file_index>
138

> <i_lp_mmshare_version>
49012

> <i_m_ct_stereo_status>
1

> <i_f3d_flags>
0

> <s_epik_input>
W2NIXTFbY0hdYyhDbClbY0hdW2NIXWMxLWMoW2NIXTIpW2NIXVtjSF1jKGMyMylbQ0gyXVtOSF1DMz1P

> <s_epik_cmdline>
J2VwaWtfcHl0aG9uJywgJy1waHQnLCAnMC41JywgJy1waCcsICc3LjUnLCAnLW50JywgJy1tYScsICcyMDAnLCAnLWltYWUnLCAnPGluZmlsZS5tYWU+JywgJy1vbWFlJywgJzxvdXRmaWxlLm1hZT4n

> <r_lp_tautomer_probability>
1

> <r_epik_Ionization_Penalty>
  0.0000

> <r_epik_Ionization_Penalty_Charging>
  0.0000

> <r_epik_Ionization_Penalty_Neutral>
  0.0000

> <r_epik_State_Penalty>
 -0.0000

> <r_epik_Charging_Adjusted_Penalty>
0

> <i_epik_Tot_Q>
0

> <i_epik_Tot_abs_Q>
0

> <s_lp_Force_Field>
OPLS3e

> <r_lp_Energy>
16.76572

> <b_lp_Chiralities_Consistent>
1

> <s_lp_Variant>
sdf/inactives_sanitized.sdf:138-1

$$$$
sdf/inactives_sanitized.sdf:139
                    3D
 Schrodinger Suite 2020-1.
 52 55  0  0  1  0            999 V2000
   -3.9665   -2.3202    1.5961 O   0  0  0  0  0  0
    1.2026    1.2548   -0.3980 O   0  0  0  0  0  0
    4.8602   -1.1114    2.1189 O   0  0  0  0  0  0
   -3.9035   -0.2657   -0.5818 N   0  0  0  0  0  0
   -4.9006    1.5251   -1.4713 N   0  0  0  0  0  0
    0.3284    1.0008   -2.4851 N   0  0  0  0  0  0
    1.5533   -0.6816   -1.5472 N   0  0  0  0  0  0
   -6.0116   -3.0584    2.1214 N   0  0  0  0  0  0
   -5.1569   -0.1315   -0.0310 C   0  0  0  0  0  0
   -5.8125    1.0036   -0.5842 C   0  0  0  0  0  0
   -3.7868    0.7224   -1.4335 C   0  0  0  0  0  0
   -5.8079   -0.9336    0.9388 C   0  0  0  0  0  0
   -2.5508    1.0094   -2.2668 C   0  0  0  0  0  0
   -7.1011    1.3849   -0.2111 C   0  0  0  0  0  0
   -7.1063   -0.5269    1.3022 C   0  0  0  0  0  0
   -5.1845   -2.1530    1.5858 C   0  0  0  0  0  0
   -1.7684   -0.2295   -2.7942 C   0  0  0  0  0  0
   -1.6884    2.2097   -1.7821 C   0  0  0  0  0  0
   -7.7278    0.5903    0.7459 C   0  0  0  0  0  0
   -0.3883    0.1018   -3.4100 C   0  0  0  0  0  0
   -0.3005    2.3314   -2.4607 C   0  0  0  0  0  0
    1.0098    0.5497   -1.3917 C   0  0  0  0  0  0
    2.4112   -1.3953   -0.6895 C   0  0  0  0  0  0
    3.2085   -0.8105    0.3098 C   0  0  0  0  0  0
    4.0482   -1.6016    1.1140 C   0  0  0  0  0  0
    2.4804   -2.7757   -0.8941 C   0  0  0  0  0  0
    4.0848   -2.9804    0.8969 C   0  0  0  0  0  0
    3.3098   -3.5662   -0.1017 C   0  0  0  0  0  0
    4.8586    0.2855    2.3942 C   0  0  0  0  0  0
   -4.9823    2.3388   -2.0634 H   0  0  0  0  0  0
    1.2850   -1.1847   -2.3800 H   0  0  0  0  0  0
   -5.6381   -3.8925    2.5503 H   0  0  0  0  0  0
   -7.0103   -2.9154    2.0977 H   0  0  0  0  0  0
   -2.8488    1.4149   -3.2362 H   0  0  0  0  0  0
   -7.5927    2.2486   -0.6344 H   0  0  0  0  0  0
   -7.6651   -1.0785    2.0447 H   0  0  0  0  0  0
   -1.5550   -0.8978   -1.9582 H   0  0  0  0  0  0
   -2.3550   -0.7823   -3.5293 H   0  0  0  0  0  0
   -2.2200    3.1544   -1.9041 H   0  0  0  0  0  0
   -1.4790    2.0757   -0.7194 H   0  0  0  0  0  0
   -8.7258    0.8485    1.0691 H   0  0  0  0  0  0
   -0.5155    0.6419   -4.3493 H   0  0  0  0  0  0
    0.2069   -0.7660   -3.6964 H   0  0  0  0  0  0
    0.3583    3.0836   -2.0234 H   0  0  0  0  0  0
   -0.4131    2.6549   -3.4964 H   0  0  0  0  0  0
    3.1954    0.2567    0.4549 H   0  0  0  0  0  0
    1.8858   -3.2467   -1.6643 H   0  0  0  0  0  0
    4.7240   -3.6033    1.5056 H   0  0  0  0  0  0
    3.3523   -4.6335   -0.2615 H   0  0  0  0  0  0
    5.5493    0.4927    3.2114 H   0  0  0  0  0  0
    3.8704    0.6312    2.7015 H   0  0  0  0  0  0
    5.1881    0.8644    1.5298 H   0  0  0  0  0  0
  1 16  2  0  0  0
  2 22  2  0  0  0
  3 25  1  0  0  0
  3 29  1  0  0  0
  4  9  1  0  0  0
  4 11  2  0  0  0
  5 10  1  0  0  0
  5 11  1  0  0  0
  5 30  1  0  0  0
  6 20  1  0  0  0
  6 21  1  0  0  0
  6 22  1  0  0  0
  7 22  1  0  0  0
  7 23  1  0  0  0
  7 31  1  0  0  0
  8 16  1  0  0  0
  8 32  1  0  0  0
  8 33  1  0  0  0
  9 10  2  0  0  0
  9 12  1  0  0  0
 10 14  1  0  0  0
 11 13  1  0  0  0
 12 15  2  0  0  0
 12 16  1  0  0  0
 13 17  1  0  0  0
 13 18  1  0  0  0
 13 34  1  0  0  0
 14 19  2  0  0  0
 14 35  1  0  0  0
 15 19  1  0  0  0
 15 36  1  0  0  0
 17 20  1  0  0  0
 17 37  1  0  0  0
 17 38  1  0  0  0
 18 21  1  0  0  0
 18 39  1  0  0  0
 18 40  1  0  0  0
 19 41  1  0  0  0
 20 42  1  0  0  0
 20 43  1  0  0  0
 21 44  1  0  0  0
 21 45  1  0  0  0
 23 24  2  0  0  0
 23 26  1  0  0  0
 24 25  1  0  0  0
 24 46  1  0  0  0
 25 27  2  0  0  0
 26 28  2  0  0  0
 26 47  1  0  0  0
 27 28  1  0  0  0
 27 48  1  0  0  0
 28 49  1  0  0  0
 29 50  1  0  0  0
 29 51  1  0  0  0
 29 52  1  0  0  0
M  END
> <chembl_id>
CHEMBL1973363

> <chembl_pref_name>
None

> <s_m_source_file>
sdf/inactives_sanitized.sdf

> <i_m_source_file_index>
139

> <i_lp_mmshare_version>
49012

> <i_m_ct_stereo_status>
1

> <i_f3d_flags>
0

> <s_epik_input>
Tz1DKFtOSDJdKWMxW2NIXVtjSF1bY0hdYyhjMTIpW25IXWMobjIpW0NIXShbQ0gyXVtDSDJdMylbQ0gyXVtDSDJdTjNDKD1PKVtOSF1jNFtjSF1jKE9bQ0gzXSlbY0hdW2NIXVtjSF00

> <s_epik_cmdline>
J2VwaWtfcHl0aG9uJywgJy1waHQnLCAnMC41JywgJy1waCcsICc3LjUnLCAnLW50JywgJy1tYScsICcyMDAnLCAnLWltYWUnLCAnPGluZmlsZS5tYWU+JywgJy1vbWFlJywgJzxvdXRmaWxlLm1hZT4n

> <r_lp_tautomer_probability>
1

> <r_epik_Ionization_Penalty>
  0.0074

> <r_epik_Ionization_Penalty_Charging>
  0.0000

> <r_epik_Ionization_Penalty_Neutral>
  0.0074

> <r_epik_State_Penalty>
 -0.0000

> <r_epik_Charging_Adjusted_Penalty>
0

> <i_epik_Tot_Q>
0

> <i_epik_Tot_abs_Q>
0

> <s_lp_Force_Field>
OPLS3e

> <r_lp_Energy>
40.972208

> <b_lp_Chiralities_Consistent>
1

> <s_lp_Variant>
sdf/inactives_sanitized.sdf:139-1

$$$$
sdf/inactives_sanitized.sdf:140
                    3D
 Schrodinger Suite 2020-1.
 39 42  0  0  1  0            999 V2000
   -0.9582    4.7679   -2.8520 Br  0  0  0  0  0  0
   -0.1151    0.0049    0.0055 S   0  0  0  0  0  0
   -0.5853   -0.5547   -1.2671 O   0  0  0  0  0  0
   -0.5746   -0.5520    1.2832 O   0  0  0  0  0  0
    0.5486   -6.9091   -0.0002 O   0  0  0  0  0  0
    1.6549   -0.1276   -0.0016 N   0  0  0  0  0  0
    0.7702   -5.5257   -0.0004 N   0  0  0  0  0  0
    2.4412   -3.7790   -0.0005 C   0  0  0  0  0  0
    3.8297   -3.7171   -0.0007 C   0  0  0  0  0  0
    4.3451   -5.0807   -0.0001 C   0  0  0  0  0  0
    1.9999   -5.1795   -0.0003 C   0  0  0  0  0  0
    3.2633   -5.9628    0.0000 C   0  0  0  0  0  0
    1.7016   -2.5903   -0.0007 C   0  0  0  0  0  0
    2.3496   -1.3464   -0.0013 C   0  0  0  0  0  0
    4.4894   -2.4874   -0.0014 C   0  0  0  0  0  0
    5.6609   -5.5501    0.0003 C   0  0  0  0  0  0
    3.7469   -1.3070   -0.0017 C   0  0  0  0  0  0
    3.5234   -7.3422    0.0005 C   0  0  0  0  0  0
   -0.4434    1.7627    0.0052 C   0  0  0  0  0  0
    5.9041   -6.9223    0.0007 C   0  0  0  0  0  0
    4.8358   -7.8173    0.0008 C   0  0  0  0  0  0
   -0.5590    2.4539   -1.2048 C   0  0  0  0  0  0
   -0.5524    2.4557    1.2148 C   0  0  0  0  0  0
   -0.7957    3.8294   -1.2041 C   0  0  0  0  0  0
   -0.7882    3.8310    1.2129 C   0  0  0  0  0  0
   -0.9114    4.5175    0.0045 C   0  0  0  0  0  0
   -0.4104   -6.9575   -0.0004 H   0  0  0  0  0  0
    2.1940    0.7256   -0.0044 H   0  0  0  0  0  0
    0.6230   -2.6408   -0.0006 H   0  0  0  0  0  0
    5.5682   -2.4355   -0.0016 H   0  0  0  0  0  0
    6.4956   -4.8647    0.0003 H   0  0  0  0  0  0
    4.2660   -0.3592   -0.0021 H   0  0  0  0  0  0
    2.7287   -8.0717    0.0007 H   0  0  0  0  0  0
    6.9191   -7.2916    0.0010 H   0  0  0  0  0  0
    5.0236   -8.8810    0.0012 H   0  0  0  0  0  0
   -0.4655    1.9291   -2.1445 H   0  0  0  0  0  0
   -0.4545    1.9346    2.1560 H   0  0  0  0  0  0
   -0.8738    4.3650    2.1478 H   0  0  0  0  0  0
   -1.0942    5.5822    0.0066 H   0  0  0  0  0  0
  1 24  1  0  0  0
  2  3  2  0  0  0
  2  4  2  0  0  0
  2  6  1  0  0  0
  2 19  1  0  0  0
  5  7  1  0  0  0
  5 27  1  0  0  0
  6 14  1  0  0  0
  6 28  1  0  0  0
  7 11  2  3  0  0
  8  9  2  0  0  0
  8 11  1  0  0  0
  8 13  1  0  0  0
  9 10  1  0  0  0
  9 15  1  0  0  0
 10 12  2  0  0  0
 10 16  1  0  0  0
 11 12  1  0  0  0
 12 18  1  0  0  0
 13 14  2  0  0  0
 13 29  1  0  0  0
 14 17  1  0  0  0
 15 17  2  0  0  0
 15 30  1  0  0  0
 16 20  2  0  0  0
 16 31  1  0  0  0
 17 32  1  0  0  0
 18 21  2  0  0  0
 18 33  1  0  0  0
 19 22  2  0  0  0
 19 23  1  0  0  0
 20 21  1  0  0  0
 20 34  1  0  0  0
 21 35  1  0  0  0
 22 24  1  0  0  0
 22 36  1  0  0  0
 23 25  2  0  0  0
 23 37  1  0  0  0
 24 26  2  0  0  0
 25 26  1  0  0  0
 25 38  1  0  0  0
 26 39  1  0  0  0
M  END
> <chembl_id>
CHEMBL1973793

> <chembl_pref_name>
None

> <s_m_source_file>
sdf/inactives_sanitized.sdf

> <i_m_source_file_index>
140

> <i_lp_mmshare_version>
49012

> <i_m_ct_stereo_status>
1

> <i_f3d_flags>
0

> <s_epik_input>
W2NIXTFbY0hdW2NIXWMoQnIpW2NIXWMxUyg9TykoPU8pW05IXWMoW2NIXTIpW2NIXVtjSF1jKGMyMyljNGMoQy8zPU5cW09IXSlbY0hdW2NIXVtjSF1bY0hdNA==

> <s_epik_cmdline>
J2VwaWtfcHl0aG9uJywgJy1waHQnLCAnMC41JywgJy1waCcsICc3LjUnLCAnLW50JywgJy1tYScsICcyMDAnLCAnLWltYWUnLCAnPGluZmlsZS5tYWU+JywgJy1vbWFlJywgJzxvdXRmaWxlLm1hZT4n

> <r_epik_Ionization_Penalty>
  0.3037

> <r_epik_Ionization_Penalty_Charging>
  0.0000

> <r_epik_Ionization_Penalty_Neutral>
  0.3037

> <r_epik_State_Penalty>
  0.2970

> <r_epik_Charging_Adjusted_Penalty>
0.29700384865323

> <i_epik_Tot_Q>
0

> <i_epik_Tot_abs_Q>
0

> <s_epik_Chemistry_Notes>
This compound has an imine and may undergo hydrolysis.

> <s_lp_Force_Field>
OPLS3e

> <r_lp_Energy>
37.459795

> <b_lp_Chiralities_Consistent>
1

> <s_lp_Variant>
sdf/inactives_sanitized.sdf:140-1

$$$$
sdf/inactives_sanitized.sdf:140
                    3D
 Schrodinger Suite 2020-1.
 38 41  0  0  1  0            999 V2000
   -0.4577    4.8242   -2.8531 Br  0  0  0  0  0  0
   -0.4733   -0.0221    0.0053 S   0  0  0  0  0  0
   -1.1343   -0.4075   -1.2473 O   0  0  0  0  0  0
   -1.1239   -0.4035    1.2645 O   0  0  0  0  0  0
   -0.5858   -6.9433   -0.0006 O   0  0  0  0  0  0
    1.0761   -0.2656   -0.0010 N   0  5  0  0  0  0
   -0.2554   -5.5817    0.0001 N   0  0  0  0  0  0
    1.5485   -3.9716    0.0008 C   0  0  0  0  0  0
    2.9353   -4.0195    0.0011 C   0  0  0  0  0  0
    3.3429   -5.4190    0.0011 C   0  0  0  0  0  0
    0.9979   -5.3331    0.0005 C   0  0  0  0  0  0
    2.1955   -6.2137    0.0007 C   0  0  0  0  0  0
    0.9075   -2.7273    0.0004 C   0  0  0  0  0  0
    1.6352   -1.5215   -0.0001 C   0  0  0  0  0  0
    3.6855   -2.8454    0.0010 C   0  0  0  0  0  0
    4.6180   -5.9894    0.0011 C   0  0  0  0  0  0
    3.0333   -1.6131    0.0000 C   0  0  0  0  0  0
    2.3472   -7.6092    0.0003 C   0  0  0  0  0  0
   -0.4708    1.7725    0.0040 C   0  0  0  0  0  0
    4.7535   -7.3764    0.0005 C   0  0  0  0  0  0
    3.6186   -8.1853    0.0001 C   0  0  0  0  0  0
   -0.4746    2.4764   -1.2056 C   0  0  0  0  0  0
   -0.4116    2.4762    1.2122 C   0  0  0  0  0  0
   -0.4443    3.8717   -1.2052 C   0  0  0  0  0  0
   -0.3820    3.8712    1.2106 C   0  0  0  0  0  0
   -0.4009    4.5688    0.0028 C   0  0  0  0  0  0
   -1.5455   -6.9150   -0.0015 H   0  0  0  0  0  0
   -0.1723   -2.7034    0.0000 H   0  0  0  0  0  0
    4.7651   -2.8749    0.0014 H   0  0  0  0  0  0
    5.5030   -5.3703    0.0013 H   0  0  0  0  0  0
    3.6339   -0.7141   -0.0006 H   0  0  0  0  0  0
    1.4981   -8.2743   -0.0002 H   0  0  0  0  0  0
    5.7365   -7.8237    0.0001 H   0  0  0  0  0  0
    3.7226   -9.2604   -0.0006 H   0  0  0  0  0  0
   -0.4996    1.9445   -2.1454 H   0  0  0  0  0  0
   -0.3868    1.9451    2.1525 H   0  0  0  0  0  0
   -0.3412    4.4111    2.1450 H   0  0  0  0  0  0
   -0.3771    5.6487    0.0050 H   0  0  0  0  0  0
  1 24  1  0  0  0
  2  3  2  0  0  0
  2  4  2  0  0  0
  2  6  1  0  0  0
  2 19  1  0  0  0
  5  7  1  0  0  0
  5 27  1  0  0  0
  6 14  1  0  0  0
  7 11  2  3  0  0
  8  9  2  0  0  0
  8 11  1  0  0  0
  8 13  1  0  0  0
  9 10  1  0  0  0
  9 15  1  0  0  0
 10 12  2  0  0  0
 10 16  1  0  0  0
 11 12  1  0  0  0
 12 18  1  0  0  0
 13 14  2  0  0  0
 13 28  1  0  0  0
 14 17  1  0  0  0
 15 17  2  0  0  0
 15 29  1  0  0  0
 16 20  2  0  0  0
 16 30  1  0  0  0
 17 31  1  0  0  0
 18 21  2  0  0  0
 18 32  1  0  0  0
 19 22  2  0  0  0
 19 23  1  0  0  0
 20 21  1  0  0  0
 20 33  1  0  0  0
 21 34  1  0  0  0
 22 24  1  0  0  0
 22 35  1  0  0  0
 23 25  2  0  0  0
 23 36  1  0  0  0
 24 26  2  0  0  0
 25 26  1  0  0  0
 25 37  1  0  0  0
 26 38  1  0  0  0
M  CHG  1   6  -1
M  END
> <chembl_id>
CHEMBL1973793

> <chembl_pref_name>
None

> <s_m_source_file>
sdf/inactives_sanitized.sdf

> <i_m_source_file_index>
140

> <i_lp_mmshare_version>
49012

> <i_m_ct_stereo_status>
1

> <i_f3d_flags>
0

> <s_epik_input>
W2NIXTFbY0hdW2NIXWMoQnIpW2NIXWMxUyg9TykoPU8pW05IXWMoW2NIXTIpW2NIXVtjSF1jKGMyMyljNGMoQy8zPU5cW09IXSlbY0hdW2NIXVtjSF1bY0hdNA==

> <s_epik_cmdline>
J2VwaWtfcHl0aG9uJywgJy1waHQnLCAnMC41JywgJy1waCcsICc3LjUnLCAnLW50JywgJy1tYScsICcyMDAnLCAnLWltYWUnLCAnPGluZmlsZS5tYWU+JywgJy1vbWFlJywgJzxvdXRmaWxlLm1hZT4n

> <r_epik_Ionization_Penalty>
  0.5422

> <r_epik_Ionization_Penalty_Charging>
  0.5418

> <r_epik_Ionization_Penalty_Neutral>
  0.0003

> <r_epik_State_Penalty>
  0.5515

> <r_epik_Charging_Adjusted_Penalty>
1.09330413534861

> <i_epik_Tot_Q>
-1

> <i_epik_Tot_abs_Q>
1

> <s_epik_Chemistry_Notes>
This compound has an imine and may undergo hydrolysis.

> <s_lp_Force_Field>
OPLS3e

> <r_lp_Energy>
40.904661

> <b_lp_Chiralities_Consistent>
1

> <s_lp_Variant>
sdf/inactives_sanitized.sdf:140-2

$$$$
sdf/inactives_sanitized.sdf:141
                    3D
 Schrodinger Suite 2020-1.
 53 56  0  0  1  0            999 V2000
   -6.4498    5.7373    0.0822 F   0  0  0  0  0  0
   -4.4798    7.7217    3.9201 F   0  0  0  0  0  0
    1.9633    0.9818   -3.8243 O   0  0  0  0  0  0
   -4.8695    1.3676   -0.5930 N   0  0  0  0  0  0
   -6.3985    2.7814    0.3299 N   0  0  0  0  0  0
   -1.9533    1.3618    0.1000 N   0  0  0  0  0  0
   -6.7925   -0.3191   -1.6803 N   0  0  0  0  0  0
    0.0828    2.6460    0.1986 N   0  0  0  0  0  0
    0.0964    0.2497    0.1163 N   0  0  0  0  0  0
   -4.1742    2.3821    0.0477 C   0  0  0  0  0  0
   -5.1798    3.2003    0.6057 C   0  0  0  0  0  0
   -6.2333    1.6537   -0.3977 C   0  0  0  0  0  0
   -2.6789    2.5140    0.1055 C   0  0  0  0  0  0
   -5.0091    4.4112    1.4644 C   0  0  0  0  0  0
   -7.1778    0.7710   -0.9642 C   0  0  0  0  0  0
   -4.4826    0.2707   -1.3293 C   0  0  0  0  0  0
   -5.6555    5.6226    1.1726 C   0  0  0  0  0  0
   -4.1877    4.3335    2.5962 C   0  0  0  0  0  0
   -2.0533    3.7660    0.1570 C   0  0  0  0  0  0
   -5.4711   -0.5549   -1.8557 C   0  0  0  0  0  0
   -0.6002    1.4685    0.1430 C   0  0  0  0  0  0
   -5.4750    6.7323    1.9996 C   0  0  0  0  0  0
   -4.0088    5.4446    3.4200 C   0  0  0  0  0  0
   -4.6527    6.6442    3.1218 C   0  0  0  0  0  0
   -0.6589    3.7828    0.2051 C   0  0  0  0  0  0
   -8.6796    0.9559   -0.8339 C   0  0  0  0  0  0
    1.5422    0.1642   -0.1015 C   0  0  0  0  0  0
    1.9819   -0.0799   -1.5760 C   0  0  0  0  0  0
    1.5419    1.1109   -2.4789 C   0  0  0  0  0  0
    3.5250   -0.2071   -1.5871 C   0  0  0  0  0  0
    1.3704   -1.4057   -2.0974 C   0  0  0  0  0  0
    1.6595    1.7495   -4.3143 H   0  0  0  0  0  0
   -0.4434   -0.5941   -0.0118 H   0  0  0  0  0  0
   -3.4302    0.0917   -1.4820 H   0  0  0  0  0  0
   -3.6849    3.4090    2.8415 H   0  0  0  0  0  0
   -2.6149    4.6882    0.1479 H   0  0  0  0  0  0
   -5.2097   -1.4260   -2.4385 H   0  0  0  0  0  0
   -5.9713    7.6635    1.7696 H   0  0  0  0  0  0
   -3.3723    5.3745    4.2898 H   0  0  0  0  0  0
   -0.1171    4.7163    0.2440 H   0  0  0  0  0  0
   -8.9667    0.9576    0.2180 H   0  0  0  0  0  0
   -9.2455    0.1689   -1.3357 H   0  0  0  0  0  0
   -8.9771    1.9114   -1.2669 H   0  0  0  0  0  0
    2.0364    1.0551    0.2886 H   0  0  0  0  0  0
    1.9052   -0.6459    0.5325 H   0  0  0  0  0  0
    1.9337    2.0519   -2.0904 H   0  0  0  0  0  0
    0.4562    1.2116   -2.4895 H   0  0  0  0  0  0
    3.9075   -0.4316   -2.5837 H   0  0  0  0  0  0
    3.8669   -1.0057   -0.9270 H   0  0  0  0  0  0
    4.0047    0.7152   -1.2567 H   0  0  0  0  0  0
    1.7409   -1.6577   -3.0920 H   0  0  0  0  0  0
    0.2831   -1.3497   -2.1652 H   0  0  0  0  0  0
    1.6130   -2.2429   -1.4417 H   0  0  0  0  0  0
  1 17  1  0  0  0
  2 24  1  0  0  0
  3 29  1  0  0  0
  3 32  1  0  0  0
  4 10  1  0  0  0
  4 12  1  0  0  0
  4 16  1  0  0  0
  5 11  1  0  0  0
  5 12  2  0  0  0
  6 13  2  0  0  0
  6 21  1  0  0  0
  7 15  2  0  0  0
  7 20  1  0  0  0
  8 21  2  0  0  0
  8 25  1  0  0  0
  9 21  1  0  0  0
  9 27  1  0  0  0
  9 33  1  0  0  0
 10 11  2  0  0  0
 10 13  1  0  0  0
 11 14  1  0  0  0
 12 15  1  0  0  0
 13 19  1  0  0  0
 14 17  2  0  0  0
 14 18  1  0  0  0
 15 26  1  0  0  0
 16 20  2  0  0  0
 16 34  1  0  0  0
 17 22  1  0  0  0
 18 23  2  0  0  0
 18 35  1  0  0  0
 19 25  2  0  0  0
 19 36  1  0  0  0
 20 37  1  0  0  0
 22 24  2  0  0  0
 22 38  1  0  0  0
 23 24  1  0  0  0
 23 39  1  0  0  0
 25 40  1  0  0  0
 26 41  1  0  0  0
 26 42  1  0  0  0
 26 43  1  0  0  0
 27 28  1  0  0  0
 27 44  1  0  0  0
 27 45  1  0  0  0
 28 29  1  0  0  0
 28 30  1  0  0  0
 28 31  1  0  0  0
 29 46  1  0  0  0
 29 47  1  0  0  0
 30 48  1  0  0  0
 30 49  1  0  0  0
 30 50  1  0  0  0
 31 51  1  0  0  0
 31 52  1  0  0  0
 31 53  1  0  0  0
M  END
> <chembl_id>
CHEMBL1991678

> <chembl_pref_name>
None

> <s_m_source_file>
sdf/inactives_sanitized.sdf

> <i_m_source_file_index>
141

> <i_lp_mmshare_version>
49012

> <i_m_ct_stereo_status>
1

> <i_f3d_flags>
0

> <s_epik_input>
W2NIXTFbY0hdbmMoW0NIM10pYyhuMTIpbmMoLWMzYyhGKVtjSF1jKEYpW2NIXVtjSF0zKWMyLWM0bmMobltjSF1bY0hdNClbTkhdW0NIMl1DKFtDSDNdKShbQ0gzXSlbQ0gyXVtPSF0=

> <s_epik_cmdline>
J2VwaWtfcHl0aG9uJywgJy1waHQnLCAnMC41JywgJy1waCcsICc3LjUnLCAnLW50JywgJy1tYScsICcyMDAnLCAnLWltYWUnLCAnPGluZmlsZS5tYWU+JywgJy1vbWFlJywgJzxvdXRmaWxlLm1hZT4n

> <r_lp_tautomer_probability>
1

> <r_epik_Ionization_Penalty>
  0.0002

> <r_epik_Ionization_Penalty_Charging>
  0.0000

> <r_epik_Ionization_Penalty_Neutral>
  0.0002

> <r_epik_State_Penalty>
 -0.0000

> <r_epik_Charging_Adjusted_Penalty>
1.00628398551816e-05

> <i_epik_Tot_Q>
0

> <i_epik_Tot_abs_Q>
0

> <s_lp_Force_Field>
OPLS3e

> <r_lp_Energy>
42.999951

> <b_lp_Chiralities_Consistent>
1

> <s_lp_Variant>
sdf/inactives_sanitized.sdf:141-1

$$$$
sdf/inactives_sanitized.sdf:142
                    3D
 Schrodinger Suite 2020-1.
 40 42  0  0  1  0            999 V2000
   -3.1858    5.9472   -0.1759 F   0  0  0  0  0  0
   -3.2618    5.4245    1.9270 F   0  0  0  0  0  0
   -5.0753    5.9344    0.8705 F   0  0  0  0  0  0
   -0.1576    2.4253    0.5408 O   0  0  0  0  0  0
    0.2805    0.3046   -0.2204 N   0  0  0  0  0  0
   -2.8973    3.1395    0.2635 N   0  0  0  0  0  0
    4.4868   -0.2113    0.0768 N   0  0  0  0  0  0
   -1.8037    1.0290   -0.2165 N   0  0  0  0  0  0
    2.2693   -1.0958   -0.4516 C   0  0  0  0  0  0
    1.6830    0.1673   -0.1043 C   0  0  0  0  0  0
    3.6903   -1.2314   -0.3409 C   0  0  0  0  0  0
   -4.0548    3.8440    0.3869 C   0  0  0  0  0  0
   -3.8976    5.3168    0.7594 C   0  0  0  0  0  0
    1.5201   -2.2238   -0.8993 C   0  0  0  0  0  0
   -2.9605    1.8159   -0.0632 C   0  0  0  0  0  0
    2.1559   -3.4233   -1.2214 C   0  0  0  0  0  0
   -0.5243    1.3465    0.0735 C   0  0  0  0  0  0
    2.5381    1.1986    0.3178 C   0  0  0  0  0  0
    4.3068   -2.4611   -0.6742 C   0  0  0  0  0  0
   -5.3088    3.2553    0.1844 C   0  0  0  0  0  0
    3.5396   -3.5374   -1.1086 C   0  0  0  0  0  0
    3.9063    0.9677    0.3930 C   0  0  0  0  0  0
   -4.1833    1.1727   -0.2818 C   0  0  0  0  0  0
   -5.3659    1.9030   -0.1540 C   0  0  0  0  0  0
    1.3701   -4.5608   -1.6769 C   0  0  0  0  0  0
    0.7220   -5.5225   -2.0601 C   0  0  0  0  0  0
   -0.0439   -6.6883   -2.5240 C   0  0  0  0  0  0
   -0.1785   -0.5151   -0.5892 H   0  0  0  0  0  0
   -1.9737    0.0902   -0.5458 H   0  0  0  0  0  0
    0.4456   -2.1459   -0.9891 H   0  0  0  0  0  0
    2.1835    2.1793    0.5885 H   0  0  0  0  0  0
    5.3798   -2.5621   -0.5906 H   0  0  0  0  0  0
   -6.2211    3.8251    0.2843 H   0  0  0  0  0  0
    4.0356   -4.4656   -1.3568 H   0  0  0  0  0  0
    4.5732    1.7533    0.7163 H   0  0  0  0  0  0
   -4.2250    0.1252   -0.5450 H   0  0  0  0  0  0
   -6.3202    1.4239   -0.3166 H   0  0  0  0  0  0
   -0.8977   -6.8547   -1.8673 H   0  0  0  0  0  0
    0.5913   -7.5742   -2.5154 H   0  0  0  0  0  0
   -0.4020   -6.5154   -3.5389 H   0  0  0  0  0  0
  1 13  1  0  0  0
  2 13  1  0  0  0
  3 13  1  0  0  0
  4 17  2  0  0  0
  5 10  1  0  0  0
  5 17  1  0  0  0
  5 28  1  0  0  0
  6 12  2  0  0  0
  6 15  1  0  0  0
  7 11  2  0  0  0
  7 22  1  0  0  0
  8 15  1  0  0  0
  8 17  1  0  0  0
  8 29  1  0  0  0
  9 10  2  0  0  0
  9 11  1  0  0  0
  9 14  1  0  0  0
 10 18  1  0  0  0
 11 19  1  0  0  0
 12 13  1  0  0  0
 12 20  1  0  0  0
 14 16  2  0  0  0
 14 30  1  0  0  0
 15 23  2  0  0  0
 16 21  1  0  0  0
 16 25  1  0  0  0
 18 22  2  0  0  0
 18 31  1  0  0  0
 19 21  2  0  0  0
 19 32  1  0  0  0
 20 24  2  0  0  0
 20 33  1  0  0  0
 21 34  1  0  0  0
 22 35  1  0  0  0
 23 24  1  0  0  0
 23 36  1  0  0  0
 24 37  1  0  0  0
 25 26  3  0  0  0
 26 27  1  0  0  0
 27 38  1  0  0  0
 27 39  1  0  0  0
 27 40  1  0  0  0
M  END
> <chembl_id>
CHEMBL2007375

> <chembl_pref_name>
None

> <s_m_source_file>
sdf/inactives_sanitized.sdf

> <i_m_source_file_index>
142

> <i_lp_mmshare_version>
49012

> <i_m_ct_stereo_status>
1

> <i_f3d_flags>
0

> <s_epik_input>
RkMoRikoRiljMW5jKFtjSF1bY0hdW2NIXTEpW05IXUMoPU8pW05IXWMyW2NIXVtjSF1uYyhjMjMpW2NIXVtjSF1jKFtjSF0zKUMjQ1tDSDNd

> <s_epik_cmdline>
J2VwaWtfcHl0aG9uJywgJy1waHQnLCAnMC41JywgJy1waCcsICc3LjUnLCAnLW50JywgJy1tYScsICcyMDAnLCAnLWltYWUnLCAnPGluZmlsZS5tYWU+JywgJy1vbWFlJywgJzxvdXRmaWxlLm1hZT4n

> <r_epik_Ionization_Penalty>
  0.0140

> <r_epik_Ionization_Penalty_Charging>
  0.0000

> <r_epik_Ionization_Penalty_Neutral>
  0.0140

> <r_epik_State_Penalty>
  0.0109

> <r_epik_Charging_Adjusted_Penalty>
0.0108862104956871

> <i_epik_Tot_Q>
0

> <i_epik_Tot_abs_Q>
0

> <s_lp_Force_Field>
OPLS3e

> <r_lp_Energy>
46.315536

> <b_lp_Chiralities_Consistent>
1

> <s_lp_Variant>
sdf/inactives_sanitized.sdf:142-1

$$$$
sdf/inactives_sanitized.sdf:143
                    3D
 Schrodinger Suite 2020-1.
 45 47  0  0  1  0            999 V2000
    2.4118   -6.6096   -0.0946 S   0  0  0  0  0  0
   -3.0083   -3.1444   -0.1546 O   0  0  0  0  0  0
    2.6915   -7.8845   -0.7650 O   0  0  0  0  0  0
    3.1018   -5.3848   -0.5159 O   0  0  0  0  0  0
    3.6775   -1.1560   -2.7238 O   0  0  0  0  0  0
   -0.1584   -0.0015    0.1631 N   0  0  0  0  0  0
   -2.3294   -0.3778    0.0629 N   0  0  0  0  0  0
   -0.8258   -2.3291   -0.0130 N   0  0  0  0  0  0
   -0.7864    1.2399    0.1848 C   0  0  0  0  0  0
   -1.0908   -1.0762    0.0589 C   0  0  0  0  0  0
   -2.1552    1.0000    0.1355 C   0  0  0  0  0  0
   -1.7858   -3.3351   -0.1253 C   0  0  0  0  0  0
   -1.2225   -4.7421   -0.2179 C   0  0  0  0  0  0
   -0.3060    2.5506    0.2548 C   0  0  0  0  0  0
    0.6512   -6.3079   -0.2212 C   0  0  0  0  0  0
   -3.0637    2.0586    0.1549 C   0  0  0  0  0  0
    1.2890   -0.2182    0.0810 C   0  0  0  0  0  0
    0.1579   -5.0036   -0.1276 C   0  0  0  0  0  0
   -2.0911   -5.8302   -0.4013 C   0  0  0  0  0  0
   -1.2111    3.6144    0.2730 C   0  0  0  0  0  0
   -2.5861    3.3692    0.2242 C   0  0  0  0  0  0
   -0.2324   -7.3730   -0.4033 C   0  0  0  0  0  0
   -1.6011   -7.1326   -0.4939 C   0  0  0  0  0  0
    1.7569   -0.6760   -1.3175 C   0  0  0  0  0  0
    2.6749   -6.8368    1.7586 C   0  0  0  0  0  0
    3.2877   -0.7115   -1.4419 C   0  0  0  0  0  0
    4.6363   -1.1939   -2.7563 H   0  0  0  0  0  0
    0.7531    2.7572    0.2954 H   0  0  0  0  0  0
   -4.1281    1.8791    0.1146 H   0  0  0  0  0  0
    1.8243    0.6876    0.3668 H   0  0  0  0  0  0
    1.5825   -0.9512    0.8344 H   0  0  0  0  0  0
    0.8644   -4.1994    0.0190 H   0  0  0  0  0  0
   -3.1587   -5.6791   -0.4776 H   0  0  0  0  0  0
   -0.8468    4.6299    0.3259 H   0  0  0  0  0  0
   -3.2814    4.1955    0.2387 H   0  0  0  0  0  0
    0.1355   -8.3862   -0.4737 H   0  0  0  0  0  0
   -2.2846   -7.9567   -0.6370 H   0  0  0  0  0  0
    1.3981   -1.6906   -1.4972 H   0  0  0  0  0  0
    1.3187   -0.0422   -2.0903 H   0  0  0  0  0  0
    3.7326   -7.0220    1.9434 H   0  0  0  0  0  0
    2.0833   -7.6860    2.0996 H   0  0  0  0  0  0
    2.3597   -5.9303    2.2750 H   0  0  0  0  0  0
    3.7181   -1.3589   -0.6768 H   0  0  0  0  0  0
    3.7094    0.2753   -1.2468 H   0  0  0  0  0  0
   -3.2258   -0.8399    0.0085 H   0  0  0  0  0  0
  1  3  2  0  0  0
  1  4  2  0  0  0
  1 15  1  0  0  0
  1 25  1  0  0  0
  2 12  2  0  0  0
  5 26  1  0  0  0
  5 27  1  0  0  0
  6  9  1  0  0  0
  6 10  1  0  0  0
  6 17  1  0  0  0
  7 10  1  0  0  0
  7 11  1  0  0  0
  7 45  1  0  0  0
  8 10  2  0  0  0
  8 12  1  0  0  0
  9 11  2  0  0  0
  9 14  1  0  0  0
 11 16  1  0  0  0
 12 13  1  0  0  0
 13 18  1  0  0  0
 13 19  2  0  0  0
 14 20  2  0  0  0
 14 28  1  0  0  0
 15 18  2  0  0  0
 15 22  1  0  0  0
 16 21  2  0  0  0
 16 29  1  0  0  0
 17 24  1  0  0  0
 17 30  1  0  0  0
 17 31  1  0  0  0
 18 32  1  0  0  0
 19 23  1  0  0  0
 19 33  1  0  0  0
 20 21  1  0  0  0
 20 34  1  0  0  0
 21 35  1  0  0  0
 22 23  2  0  0  0
 22 36  1  0  0  0
 23 37  1  0  0  0
 24 26  1  0  0  0
 24 38  1  0  0  0
 24 39  1  0  0  0
 25 40  1  0  0  0
 25 41  1  0  0  0
 25 42  1  0  0  0
 26 43  1  0  0  0
 26 44  1  0  0  0
M  END
> <chembl_id>
CHEMBL1973016

> <chembl_pref_name>
None

> <s_m_source_file>
sdf/inactives_sanitized.sdf

> <i_m_source_file_index>
143

> <i_lp_mmshare_version>
49012

> <i_m_ct_stereo_status>
1

> <i_f3d_flags>
0

> <s_epik_input>
W2NIXTFbY0hdW2NIXWMoUyg9TykoPU8pW0NIM10pW2NIXWMxQyg9TylbTkhdYyhuMltDSDJdW0NIMl1bQ0gyXVtPSF0pbmMoYzIzKVtjSF1bY0hdW2NIXVtjSF0z

> <s_epik_cmdline>
J2VwaWtfcHl0aG9uJywgJy1waHQnLCAnMC41JywgJy1waCcsICc3LjUnLCAnLW50JywgJy1tYScsICcyMDAnLCAnLWltYWUnLCAnPGluZmlsZS5tYWU+JywgJy1vbWFlJywgJzxvdXRmaWxlLm1hZT4n

> <r_lp_tautomer_probability>
1

> <r_epik_Ionization_Penalty>
  0.1439

> <r_epik_Ionization_Penalty_Charging>
  0.1439

> <r_epik_Ionization_Penalty_Neutral>
  0.0000

> <r_epik_State_Penalty>
 -0.0000

> <r_epik_Charging_Adjusted_Penalty>
0.143940606362321

> <i_epik_Tot_Q>
0

> <i_epik_Tot_abs_Q>
0

> <s_lp_Force_Field>
OPLS3e

> <r_lp_Energy>
24.396461

> <b_lp_Chiralities_Consistent>
1

> <s_lp_Variant>
sdf/inactives_sanitized.sdf:143-1

$$$$
sdf/inactives_sanitized.sdf:144
                    3D
 Schrodinger Suite 2020-1.
 32 35  0  0  1  0            999 V2000
   -0.0056    0.2741    0.0000 O   0  0  0  0  0  0
    1.3819    0.0540    0.0000 N   0  0  0  0  0  0
    1.8002   -1.1671   -0.0000 C   0  0  0  0  0  0
    0.9383   -2.4007   -0.0000 C   0  0  0  0  0  0
   -0.3816   -2.4349   -0.0000 N   0  0  0  0  0  0
   -0.7391   -3.7563   -0.0000 C   0  0  0  0  0  0
   -2.0167   -4.3358   -0.0000 C   0  0  0  0  0  0
   -2.1061   -5.7292   -0.0000 C   0  0  0  0  0  0
   -0.9614   -6.5284   -0.0000 C   0  0  0  0  0  0
    0.3238   -5.9792   -0.0000 C   0  0  0  0  0  0
    0.4040   -4.5836   -0.0000 C   0  0  0  0  0  0
    1.4448   -3.6875   -0.0000 N   0  0  0  0  0  0
    3.2867   -1.2970   -0.0000 C   0  0  0  0  0  0
    3.9686   -2.4250   -0.0000 N   0  0  0  0  0  0
    5.2921   -2.0736   -0.0000 C   0  0  0  0  0  0
    6.4301   -2.8939   -0.0000 C   0  0  0  0  0  0
    7.6832   -2.2788   -0.0000 C   0  0  0  0  0  0
    7.8078   -0.8884   -0.0000 C   0  0  0  0  0  0
    6.6930   -0.0453    0.0000 C   0  0  0  0  0  0
    5.4414   -0.6684   -0.0000 C   0  0  0  0  0  0
    4.1461   -0.2091    0.0000 N   0  0  0  0  0  0
   -0.0581    1.2328    0.0000 H   0  0  0  0  0  0
   -2.9080   -3.7255   -0.0000 H   0  0  0  0  0  0
   -3.0792   -6.1985   -0.0000 H   0  0  0  0  0  0
   -1.0725   -7.6029   -0.0000 H   0  0  0  0  0  0
    1.2031   -6.6063   -0.0000 H   0  0  0  0  0  0
    2.4364   -3.8816    0.0000 H   0  0  0  0  0  0
    6.3442   -3.9706   -0.0000 H   0  0  0  0  0  0
    8.5741   -2.8898   -0.0000 H   0  0  0  0  0  0
    8.7959   -0.4519   -0.0000 H   0  0  0  0  0  0
    6.8019    1.0294    0.0000 H   0  0  0  0  0  0
    3.8193    0.7465    0.0000 H   0  0  0  0  0  0
  1  2  1  0  0  0
  1 22  1  0  0  0
  2  3  2  3  0  0
  3  4  1  0  0  0
  3 13  1  0  0  0
  4 12  1  0  0  0
  4  5  2  0  0  0
  5  6  1  0  0  0
  6 11  2  0  0  0
  6  7  1  0  0  0
  7  8  2  0  0  0
  7 23  1  0  0  0
  8  9  1  0  0  0
  8 24  1  0  0  0
  9 10  2  0  0  0
  9 25  1  0  0  0
 10 11  1  0  0  0
 10 26  1  0  0  0
 11 12  1  0  0  0
 12 27  1  0  0  0
 13 21  1  0  0  0
 13 14  2  0  0  0
 14 15  1  0  0  0
 15 20  2  0  0  0
 15 16  1  0  0  0
 16 17  2  0  0  0
 16 28  1  0  0  0
 17 18  1  0  0  0
 17 29  1  0  0  0
 18 19  2  0  0  0
 18 30  1  0  0  0
 19 20  1  0  0  0
 19 31  1  0  0  0
 20 21  1  0  0  0
 21 32  1  0  0  0
M  END
> <chembl_id>
CHEMBL546797

> <chembl_pref_name>
None

> <s_m_source_file>
sdf/inactives_sanitized.sdf

> <i_m_source_file_index>
144

> <i_lp_mmshare_version>
49012

> <i_m_ct_stereo_status>
1

> <i_f3d_flags>
0

> <s_epik_input>
W2NIXTFbY0hdW2NIXVtjSF1jKGMxMilbbkhdYyhuMilDKD1OW09IXSljKG4zKVtuSF1jKGMzNClbY0hdW2NIXVtjSF1bY0hdNA==

> <s_epik_cmdline>
J2VwaWtfcHl0aG9uJywgJy1waHQnLCAnMC41JywgJy1waCcsICc3LjUnLCAnLW50JywgJy1tYScsICcyMDAnLCAnLWltYWUnLCAnPGluZmlsZS5tYWU+JywgJy1vbWFlJywgJzxvdXRmaWxlLm1hZT4n

> <r_epik_Ionization_Penalty>
  0.0996

> <r_epik_Ionization_Penalty_Charging>
  0.0000

> <r_epik_Ionization_Penalty_Neutral>
  0.0996

> <r_epik_State_Penalty>
  0.0867

> <r_epik_Charging_Adjusted_Penalty>
0.0867095228855616

> <i_epik_Tot_Q>
0

> <i_epik_Tot_abs_Q>
0

> <s_epik_Chemistry_Notes>
This compound has an imine and may undergo hydrolysis.

> <s_lp_Force_Field>
OPLS3e

> <r_lp_Energy>
40.725034

> <b_lp_Chiralities_Consistent>
1

> <s_lp_Variant>
sdf/inactives_sanitized.sdf:144-1

$$$$
sdf/inactives_sanitized.sdf:145
                    3D
 Schrodinger Suite 2020-1.
 71 74  0  0  1  0            999 V2000
   -5.2391    6.3460    0.4323 O   0  0  0  0  0  0
   -0.4861    2.1260    0.1043 O   0  0  0  0  0  0
    1.4481    1.5603    2.2859 O   0  0  0  0  0  0
    1.6484    3.6705    5.2510 O   0  0  0  0  0  0
   -5.5327    2.3096   -0.8450 N   0  0  0  0  0  0
   -6.5202    2.0573   -1.7246 N   0  0  0  0  0  0
   -4.6868    4.1272    0.5324 N   0  0  0  0  0  0
   -3.5506    5.5572    1.7670 N   0  0  0  0  0  0
    0.0223   -0.0782    0.2359 N   0  0  0  0  0  0
   -5.5758    3.6192   -0.4046 C   0  0  0  0  0  0
   -7.2072    3.1725   -1.8779 C   0  0  0  0  0  0
   -4.6014    1.2834   -0.5372 C   0  0  0  0  0  0
   -6.6560    4.1791   -1.0740 C   0  0  0  0  0  0
   -8.4190    3.2676   -2.8189 C   0  0  0  0  0  0
   -3.2405    1.5802   -0.3796 C   0  0  0  0  0  0
   -2.3073    0.5827   -0.0569 C   0  0  0  0  0  0
   -5.0326   -0.0401   -0.3795 C   0  0  0  0  0  0
   -4.5502    5.4228    0.8718 C   0  0  0  0  0  0
   -2.9658    6.7348    2.2837 C   0  0  0  0  0  0
   -2.2020    6.6440    3.4953 C   0  0  0  0  0  0
   -1.5615    7.8204    4.0036 C   0  0  0  0  0  0
   -2.7703   -0.7345    0.1061 C   0  0  0  0  0  0
   -4.1200   -1.0418   -0.0579 C   0  0  0  0  0  0
   -0.8449    0.9460    0.1073 C   0  0  0  0  0  0
   -9.6607    3.6952   -2.0034 C   0  0  0  0  0  0
   -8.7350    1.9225   -3.5242 C   0  0  0  0  0  0
   -8.1337    4.3327   -3.9022 C   0  0  0  0  0  0
   -3.0327    7.9652    1.6116 C   0  0  0  0  0  0
   -2.0537    5.4324    4.2350 C   0  0  0  0  0  0
   -1.6840    9.0399    3.2983 C   0  0  0  0  0  0
   -0.8119    7.7477    5.2045 C   0  0  0  0  0  0
   -2.4095    9.0985    2.1163 C   0  0  0  0  0  0
   -1.3147    5.3984    5.4136 C   0  0  0  0  0  0
   -0.6969    6.5454    5.8936 C   0  0  0  0  0  0
    1.4741    0.0424    0.3881 C   0  0  0  0  0  0
    1.9356    0.3041    1.8342 C   0  0  0  0  0  0
    1.8617    1.9039    3.6003 C   0  0  0  0  0  0
    1.2547    3.2672    3.9560 C   0  0  0  0  0  0
    1.2641    4.5319    5.4309 H   0  0  0  0  0  0
   -4.0513    3.4617    0.9479 H   0  0  0  0  0  0
   -3.1234    4.7034    2.0944 H   0  0  0  0  0  0
   -0.3439   -1.0184    0.2085 H   0  0  0  0  0  0
   -7.0180    5.1930   -0.9922 H   0  0  0  0  0  0
   -2.9001    2.5950   -0.5292 H   0  0  0  0  0  0
   -6.0759   -0.2979   -0.4945 H   0  0  0  0  0  0
   -2.0950   -1.5387    0.3598 H   0  0  0  0  0  0
   -4.4599   -2.0593    0.0675 H   0  0  0  0  0  0
  -10.5436    3.7989   -2.6360 H   0  0  0  0  0  0
   -9.5063    4.6526   -1.5037 H   0  0  0  0  0  0
   -9.8972    2.9661   -1.2270 H   0  0  0  0  0  0
   -8.9580    1.1347   -2.8031 H   0  0  0  0  0  0
   -7.8926    1.5778   -4.1258 H   0  0  0  0  0  0
   -9.5957    2.0073   -4.1894 H   0  0  0  0  0  0
   -8.9774    4.4525   -4.5834 H   0  0  0  0  0  0
   -7.2626    4.0659   -4.5026 H   0  0  0  0  0  0
   -7.9299    5.3107   -3.4637 H   0  0  0  0  0  0
   -3.5549    8.0660    0.6733 H   0  0  0  0  0  0
   -2.5219    4.5234    3.8873 H   0  0  0  0  0  0
   -1.2010    9.9284    3.6791 H   0  0  0  0  0  0
   -0.3279    8.6354    5.5856 H   0  0  0  0  0  0
   -2.4825   10.0323    1.5783 H   0  0  0  0  0  0
   -1.2178    4.4707    5.9584 H   0  0  0  0  0  0
   -0.1245    6.5036    6.8087 H   0  0  0  0  0  0
    1.9250   -0.8831    0.0296 H   0  0  0  0  0  0
    1.8496    0.8316   -0.2665 H   0  0  0  0  0  0
    3.0266    0.2977    1.8694 H   0  0  0  0  0  0
    1.5790   -0.4931    2.4893 H   0  0  0  0  0  0
    1.5232    1.1445    4.3080 H   0  0  0  0  0  0
    2.9516    1.9545    3.6439 H   0  0  0  0  0  0
    0.1666    3.2236    3.8972 H   0  0  0  0  0  0
    1.5594    4.0214    3.2295 H   0  0  0  0  0  0
  1 18  2  0  0  0
  2 24  2  0  0  0
  3 36  1  0  0  0
  3 37  1  0  0  0
  4 38  1  0  0  0
  4 39  1  0  0  0
  5  6  1  0  0  0
  5 10  1  0  0  0
  5 12  1  0  0  0
  6 11  2  0  0  0
  7 10  1  0  0  0
  7 18  1  0  0  0
  7 40  1  0  0  0
  8 18  1  0  0  0
  8 19  1  0  0  0
  8 41  1  0  0  0
  9 24  1  0  0  0
  9 35  1  0  0  0
  9 42  1  0  0  0
 10 13  2  0  0  0
 11 13  1  0  0  0
 11 14  1  0  0  0
 12 15  2  0  0  0
 12 17  1  0  0  0
 13 43  1  0  0  0
 14 25  1  0  0  0
 14 26  1  0  0  0
 14 27  1  0  0  0
 15 16  1  0  0  0
 15 44  1  0  0  0
 16 22  2  0  0  0
 16 24  1  0  0  0
 17 23  2  0  0  0
 17 45  1  0  0  0
 19 20  1  0  0  0
 19 28  2  0  0  0
 20 21  2  0  0  0
 20 29  1  0  0  0
 21 30  1  0  0  0
 21 31  1  0  0  0
 22 23  1  0  0  0
 22 46  1  0  0  0
 23 47  1  0  0  0
 25 48  1  0  0  0
 25 49  1  0  0  0
 25 50  1  0  0  0
 26 51  1  0  0  0
 26 52  1  0  0  0
 26 53  1  0  0  0
 27 54  1  0  0  0
 27 55  1  0  0  0
 27 56  1  0  0  0
 28 32  1  0  0  0
 28 57  1  0  0  0
 29 33  2  0  0  0
 29 58  1  0  0  0
 30 32  2  0  0  0
 30 59  1  0  0  0
 31 34  2  0  0  0
 31 60  1  0  0  0
 32 61  1  0  0  0
 33 34  1  0  0  0
 33 62  1  0  0  0
 34 63  1  0  0  0
 35 36  1  0  0  0
 35 64  1  0  0  0
 35 65  1  0  0  0
 36 66  1  0  0  0
 36 67  1  0  0  0
 37 38  1  0  0  0
 37 68  1  0  0  0
 37 69  1  0  0  0
 38 70  1  0  0  0
 38 71  1  0  0  0
M  END
> <chembl_id>
CHEMBL1978271

> <chembl_pref_name>
None

> <s_m_source_file>
sdf/inactives_sanitized.sdf

> <i_m_source_file_index>
145

> <i_lp_mmshare_version>
49012

> <i_m_ct_stereo_status>
1

> <i_f3d_flags>
0

> <s_epik_input>
W2NIXTFbY0hdW2NIXVtjSF1jKGMxMilbY0hdW2NIXVtjSF1jMltOSF1DKD1PKVtOSF1jM1tjSF1jKEMoW0NIM10pKFtDSDNdKVtDSDNdKW5uMy1jNFtjSF1jKFtjSF1bY0hdW2NIXTQpQyg9TylbTkhdW0NIMl1bQ0gyXU9bQ0gyXVtDSDJdW09IXQ==

> <s_epik_cmdline>
J2VwaWtfcHl0aG9uJywgJy1waHQnLCAnMC41JywgJy1waCcsICc3LjUnLCAnLW50JywgJy1tYScsICcyMDAnLCAnLWltYWUnLCAnPGluZmlsZS5tYWU+JywgJy1vbWFlJywgJzxvdXRmaWxlLm1hZT4n

> <r_lp_tautomer_probability>
1

> <r_epik_Ionization_Penalty>
  0.0000

> <r_epik_Ionization_Penalty_Charging>
  0.0000

> <r_epik_Ionization_Penalty_Neutral>
  0.0000

> <r_epik_State_Penalty>
 -0.0000

> <r_epik_Charging_Adjusted_Penalty>
0

> <i_epik_Tot_Q>
0

> <i_epik_Tot_abs_Q>
0

> <s_lp_Force_Field>
OPLS3e

> <r_lp_Energy>
58.336744

> <b_lp_Chiralities_Consistent>
1

> <s_lp_Variant>
sdf/inactives_sanitized.sdf:145-1

$$$$
sdf/inactives_sanitized.sdf:146
                    3D
 Schrodinger Suite 2020-1.
 30 32  0  0  1  0            999 V2000
    2.1725   -1.0919   -0.0422 O   0  0  0  0  0  0
   -4.7416    3.7921    0.9085 N   0  0  0  0  0  0
   -4.8424    6.0859    0.1298 N   0  0  0  0  0  0
   -2.8365    2.5174    0.0293 C   0  0  0  0  0  0
   -3.1243    4.8276   -0.6212 C   0  0  0  0  0  0
   -4.2846    4.8276    0.2010 C   0  0  0  0  0  0
   -2.0965    1.2248   -0.0178 C   0  0  0  0  0  0
   -2.3916    3.6321   -0.6981 C   0  0  0  0  0  0
   -3.9995    2.6584    0.8013 C   0  0  0  0  0  0
   -0.6945    1.1973    0.0116 C   0  0  0  0  0  0
   -3.0159    6.1412   -1.1856 C   0  0  0  0  0  0
    0.0186   -0.0119   -0.0344 C   0  0  0  0  0  0
   -2.7850    0.0078   -0.0935 C   0  0  0  0  0  0
   -4.0832    6.8749   -0.7008 C   0  0  0  0  0  0
   -0.7028   -1.2112   -0.1107 C   0  0  0  0  0  0
   -2.0952   -1.2011   -0.1398 C   0  0  0  0  0  0
    1.5166   -0.0504   -0.0033 C   0  0  0  0  0  0
    2.2735    1.2767    0.0825 C   0  0  0  0  0  0
   -5.6740    6.4210    0.5946 H   0  0  0  0  0  0
   -1.5051    3.5744   -1.3127 H   0  0  0  0  0  0
   -4.3683    1.8249    1.3813 H   0  0  0  0  0  0
   -0.1676    2.1382    0.0778 H   0  0  0  0  0  0
   -2.2584    6.5118   -1.8606 H   0  0  0  0  0  0
   -3.8649   -0.0073   -0.1240 H   0  0  0  0  0  0
   -4.3722    7.9008   -0.8766 H   0  0  0  0  0  0
   -0.1939   -2.1643   -0.1485 H   0  0  0  0  0  0
   -2.6406   -2.1313   -0.1999 H   0  0  0  0  0  0
    2.0309    1.9065   -0.7735 H   0  0  0  0  0  0
    3.3516    1.1148    0.1016 H   0  0  0  0  0  0
    1.9863    1.8162    0.9849 H   0  0  0  0  0  0
  1 17  2  0  0  0
  2  6  2  0  0  0
  2  9  1  0  0  0
  3  6  1  0  0  0
  3 14  1  0  0  0
  3 19  1  0  0  0
  4  7  1  0  0  0
  4  8  1  0  0  0
  4  9  2  0  0  0
  5  6  1  0  0  0
  5  8  2  0  0  0
  5 11  1  0  0  0
  7 10  2  0  0  0
  7 13  1  0  0  0
  8 20  1  0  0  0
  9 21  1  0  0  0
 10 12  1  0  0  0
 10 22  1  0  0  0
 11 14  2  0  0  0
 11 23  1  0  0  0
 12 15  2  0  0  0
 12 17  1  0  0  0
 13 16  2  0  0  0
 13 24  1  0  0  0
 14 25  1  0  0  0
 15 16  1  0  0  0
 15 26  1  0  0  0
 16 27  1  0  0  0
 17 18  1  0  0  0
 18 28  1  0  0  0
 18 29  1  0  0  0
 18 30  1  0  0  0
M  END
> <chembl_id>
CHEMBL2000568

> <chembl_pref_name>
None

> <s_m_source_file>
sdf/inactives_sanitized.sdf

> <i_m_source_file_index>
146

> <i_lp_mmshare_version>
49012

> <i_m_ct_stereo_status>
1

> <i_f3d_flags>
0

> <s_epik_input>
W2NIXTFbY0hdW2NIXWMoQyg9TylbQ0gzXSlbY0hdYzEtYyhbY0hdMilbY0hdbmMoYzIzKVtuSF1bY0hdW2NIXTM=

> <s_epik_cmdline>
J2VwaWtfcHl0aG9uJywgJy1waHQnLCAnMC41JywgJy1waCcsICc3LjUnLCAnLW50JywgJy1tYScsICcyMDAnLCAnLWltYWUnLCAnPGluZmlsZS5tYWU+JywgJy1vbWFlJywgJzxvdXRmaWxlLm1hZT4n

> <r_lp_tautomer_probability>
1

> <r_epik_Ionization_Penalty>
  0.0005

> <r_epik_Ionization_Penalty_Charging>
  0.0000

> <r_epik_Ionization_Penalty_Neutral>
  0.0005

> <r_epik_State_Penalty>
 -0.0000

> <r_epik_Charging_Adjusted_Penalty>
0

> <i_epik_Tot_Q>
0

> <i_epik_Tot_abs_Q>
0

> <s_lp_Force_Field>
OPLS3e

> <r_lp_Energy>
24.271147

> <b_lp_Chiralities_Consistent>
1

> <s_lp_Variant>
sdf/inactives_sanitized.sdf:146-1

$$$$
sdf/inactives_sanitized.sdf:147
                    3D
 Schrodinger Suite 2020-1.
 46 48  0  0  1  0            999 V2000
   -4.1294    1.4650   -1.7267 Cl  0  0  0  0  0  0
   -3.9269    7.1034    1.8483 F   0  0  0  0  0  0
   -1.8516    6.9304    1.2662 F   0  0  0  0  0  0
   -2.5852    5.8764    3.0116 F   0  0  0  0  0  0
    0.1777    2.4147    0.8589 O   0  0  0  0  0  0
    1.8376   -2.2027    0.6741 O   0  0  0  0  0  0
    4.1563   -6.3798   -4.8074 N   0  0  0  0  0  0
   -1.8715    1.6129    0.2293 N   0  0  0  0  0  0
    2.6048   -3.2195   -1.7784 N   0  0  0  0  0  0
    2.1505   -1.9698   -1.5744 N   0  0  0  0  0  0
   -3.1904    5.0586    0.8857 C   0  0  0  0  0  0
   -2.6496    2.7867    0.1717 C   0  0  0  0  0  0
   -2.8902    6.2662    1.7727 C   0  0  0  0  0  0
    3.6583   -5.9410   -2.6568 C   0  0  0  0  0  0
    4.1402   -6.9463   -3.5545 C   0  0  0  0  0  0
   -2.3896    3.9137    0.9709 C   0  0  0  0  0  0
    3.3879   -4.7459   -3.4328 C   0  0  0  0  0  0
   -3.7382    2.8174   -0.7158 C   0  0  0  0  0  0
   -4.2625    5.0732   -0.0127 C   0  0  0  0  0  0
   -4.5340    3.9598   -0.8046 C   0  0  0  0  0  0
    3.7147   -5.0857   -4.7346 C   0  0  0  0  0  0
    3.5456   -6.2755   -1.2935 C   0  0  0  0  0  0
    4.4984   -8.2304   -3.1291 C   0  0  0  0  0  0
    2.8830   -3.4482   -2.9954 C   0  0  0  0  0  0
   -0.5709    1.4802    0.5688 C   0  0  0  0  0  0
    3.9013   -7.5540   -0.8690 C   0  0  0  0  0  0
    4.3670   -8.5071   -1.7690 C   0  0  0  0  0  0
   -0.0196    0.0465    0.5643 C   0  0  0  0  0  0
    1.7774   -1.5266   -0.3572 C   0  0  0  0  0  0
    1.2647   -0.0793   -0.2910 C   0  0  0  0  0  0
    4.4409   -6.8103   -5.6754 H   0  0  0  0  0  0
   -2.3380    0.7821   -0.1051 H   0  0  0  0  0  0
    2.0934   -1.3851   -2.3956 H   0  0  0  0  0  0
   -1.5763    3.9091    1.6809 H   0  0  0  0  0  0
   -4.8940    5.9450   -0.1021 H   0  0  0  0  0  0
   -5.3681    3.9856   -1.4906 H   0  0  0  0  0  0
    3.6671   -4.4974   -5.6398 H   0  0  0  0  0  0
    3.1872   -5.5561   -0.5727 H   0  0  0  0  0  0
    4.8613   -8.9810   -3.8158 H   0  0  0  0  0  0
    2.7761   -2.7295   -3.8068 H   0  0  0  0  0  0
    3.8141   -7.8098    0.1769 H   0  0  0  0  0  0
    4.6336   -9.4876   -1.4026 H   0  0  0  0  0  0
    0.1891   -0.1907    1.6090 H   0  0  0  0  0  0
   -0.7922   -0.6310    0.1928 H   0  0  0  0  0  0
    1.0799    0.2759   -1.3076 H   0  0  0  0  0  0
    2.0777    0.5000    0.1503 H   0  0  0  0  0  0
  1 18  1  0  0  0
  2 13  1  0  0  0
  3 13  1  0  0  0
  4 13  1  0  0  0
  5 25  2  0  0  0
  6 29  2  0  0  0
  7 15  1  0  0  0
  7 21  1  0  0  0
  7 31  1  0  0  0
  8 12  1  0  0  0
  8 25  1  0  0  0
  8 32  1  0  0  0
  9 10  1  0  0  0
  9 24  2  3  0  0
 10 29  1  0  0  0
 10 33  1  0  0  0
 11 13  1  0  0  0
 11 16  2  0  0  0
 11 19  1  0  0  0
 12 16  1  0  0  0
 12 18  2  0  0  0
 14 15  2  0  0  0
 14 17  1  0  0  0
 14 22  1  0  0  0
 15 23  1  0  0  0
 16 34  1  0  0  0
 17 21  2  0  0  0
 17 24  1  0  0  0
 18 20  1  0  0  0
 19 20  2  0  0  0
 19 35  1  0  0  0
 20 36  1  0  0  0
 21 37  1  0  0  0
 22 26  2  0  0  0
 22 38  1  0  0  0
 23 27  2  0  0  0
 23 39  1  0  0  0
 24 40  1  0  0  0
 25 28  1  0  0  0
 26 27  1  0  0  0
 26 41  1  0  0  0
 27 42  1  0  0  0
 28 30  1  0  0  0
 28 43  1  0  0  0
 28 44  1  0  0  0
 29 30  1  0  0  0
 30 45  1  0  0  0
 30 46  1  0  0  0
M  END
> <chembl_id>
CHEMBL1994308

> <chembl_pref_name>
None

> <s_m_source_file>
sdf/inactives_sanitized.sdf

> <i_m_source_file_index>
147

> <i_lp_mmshare_version>
49012

> <i_m_ct_stereo_status>
1

> <i_f3d_flags>
0

> <s_epik_input>
RkMoRikoRiljMVtjSF1jKGMoQ2wpW2NIXVtjSF0xKVtOSF1DKD1PKVtDSDJdW0NIMl1DKD1PKVtOSF0vTj1bQ0hdL2MyW2NIXVtuSF1jKGMyMylbY0hdW2NIXVtjSF1bY0hdMw==

> <s_epik_cmdline>
J2VwaWtfcHl0aG9uJywgJy1waHQnLCAnMC41JywgJy1waCcsICc3LjUnLCAnLW50JywgJy1tYScsICcyMDAnLCAnLWltYWUnLCAnPGluZmlsZS5tYWU+JywgJy1vbWFlJywgJzxvdXRmaWxlLm1hZT4n

> <r_lp_tautomer_probability>
1

> <r_epik_Ionization_Penalty>
  0.0002

> <r_epik_Ionization_Penalty_Charging>
  0.0000

> <r_epik_Ionization_Penalty_Neutral>
  0.0002

> <r_epik_State_Penalty>
 -0.0000

> <r_epik_Charging_Adjusted_Penalty>
0

> <i_epik_Tot_Q>
0

> <i_epik_Tot_abs_Q>
0

> <s_epik_Chemistry_Notes>
This compound has an imine and may undergo hydrolysis.

> <s_lp_Force_Field>
OPLS3e

> <r_lp_Energy>
38.650504

> <b_lp_Chiralities_Consistent>
1

> <s_lp_Variant>
sdf/inactives_sanitized.sdf:147-1

$$$$
sdf/inactives_sanitized.sdf:148
                    3D
 Schrodinger Suite 2020-1.
 46 49  0  0  1  0            999 V2000
   -0.6828   -0.7597    0.6845 C   0  0  0  0  0  0
   -2.0558   -0.9615    0.5773 C   0  0  0  0  0  0
   -2.8803    0.0315    0.0401 C   0  0  0  0  0  0
   -2.3084    1.2382   -0.3741 C   0  0  0  0  0  0
   -0.9356    1.4460   -0.2721 C   0  0  0  0  0  0
   -0.1119    0.4385    0.2521 C   0  0  0  0  0  0
   -4.3483   -0.1843   -0.0554 C   0  0  0  0  0  0
   -7.1893   -0.5832   -0.1211 C   0  0  0  0  0  0
   -6.4571   -0.7183    1.0561 C   0  0  0  0  0  0
   -5.0788   -0.5262    1.0891 C   0  0  0  0  0  0
    1.2812    0.5552    0.4176 N   0  0  0  0  0  0
    2.1372    1.4292   -0.1502 C   0  0  0  0  0  0
    1.8310    2.2690   -0.9966 O   0  0  0  0  0  0
    3.3770    1.2311    0.3429 N   0  0  0  0  0  0
    4.5843    1.9076    0.0681 C   0  0  0  0  0  0
    5.7477    1.3690    0.6373 C   0  0  0  0  0  0
    6.9863    1.9712    0.4170 C   0  0  0  0  0  0
    7.0796    3.1167   -0.3699 C   0  0  0  0  0  0
    5.9315    3.6715   -0.9379 C   0  0  0  0  0  0
    4.6893    3.0672   -0.7221 C   0  0  0  0  0  0
   -6.4714   -0.2567   -1.2740 C   0  0  0  0  0  0
   -5.0629   -0.0587   -1.2719 C   0  0  0  0  0  0
   -4.7662    0.2222   -2.6505 C   0  0  0  0  0  0
   -5.8444    0.2241   -3.3892 N   0  0  0  0  0  0
   -6.8764   -0.0603   -2.5784 N   0  0  0  0  0  0
   -3.5276    0.4518   -3.1777 N   0  0  0  0  0  0
    5.6899    0.2557    1.4079 F   0  0  0  0  0  0
    6.0349    4.9135   -1.8049 C   0  0  0  0  0  0
   -0.0672   -1.5435    1.1028 H   0  0  0  0  0  0
   -2.4792   -1.8974    0.9123 H   0  0  0  0  0  0
   -2.9319    2.0259   -0.7722 H   0  0  0  0  0  0
   -0.5432    2.3997   -0.5881 H   0  0  0  0  0  0
   -8.2591   -0.7319   -0.1338 H   0  0  0  0  0  0
   -6.9730   -0.9750    1.9697 H   0  0  0  0  0  0
   -4.5672   -0.6349    2.0349 H   0  0  0  0  0  0
    1.6901   -0.1475    1.0158 H   0  0  0  0  0  0
    3.4766    0.4681    0.9962 H   0  0  0  0  0  0
    7.8775    1.5484    0.8570 H   0  0  0  0  0  0
    8.0453    3.5726   -0.5338 H   0  0  0  0  0  0
    3.8247    3.5270   -1.1724 H   0  0  0  0  0  0
   -7.8143   -0.1158   -2.9486 H   0  0  0  0  0  0
   -2.6886    0.3285   -2.6289 H   0  0  0  0  0  0
   -3.4027    0.6540   -4.1592 H   0  0  0  0  0  0
    5.2842    4.8985   -2.5960 H   0  0  0  0  0  0
    7.0064    4.9692   -2.2978 H   0  0  0  0  0  0
    5.8918    5.8130   -1.2057 H   0  0  0  0  0  0
  1  2  2  0  0  0
  1  6  1  0  0  0
  1 29  1  0  0  0
  2  3  1  0  0  0
  2 30  1  0  0  0
  3  4  2  0  0  0
  3  7  1  0  0  0
  4  5  1  0  0  0
  4 31  1  0  0  0
  5  6  2  0  0  0
  5 32  1  0  0  0
  6 11  1  0  0  0
  7 22  2  0  0  0
  7 10  1  0  0  0
  8 21  2  0  0  0
  8  9  1  0  0  0
  8 33  1  0  0  0
  9 10  2  0  0  0
  9 34  1  0  0  0
 10 35  1  0  0  0
 11 12  1  0  0  0
 11 36  1  0  0  0
 12 13  2  0  0  0
 12 14  1  0  0  0
 14 15  1  0  0  0
 14 37  1  0  0  0
 15 16  2  0  0  0
 15 20  1  0  0  0
 16 17  1  0  0  0
 16 27  1  0  0  0
 17 18  2  0  0  0
 17 38  1  0  0  0
 18 19  1  0  0  0
 18 39  1  0  0  0
 19 20  2  0  0  0
 19 28  1  0  0  0
 20 40  1  0  0  0
 21 22  1  0  0  0
 21 25  1  0  0  0
 22 23  1  0  0  0
 23 24  2  0  0  0
 23 26  1  0  0  0
 24 25  1  0  0  0
 25 41  1  0  0  0
 26 42  1  0  0  0
 26 43  1  0  0  0
 28 44  1  0  0  0
 28 45  1  0  0  0
 28 46  1  0  0  0
M  END
> <chembl_id>
CHEMBL223360

> <chembl_pref_name>
LINIFANIB

> <s_m_source_file>
sdf/inactives_sanitized.sdf

> <i_m_source_file_index>
148

> <i_lp_mmshare_version>
49012

> <i_m_ct_stereo_status>
1

> <i_f3d_flags>
0

> <s_epik_input>
W25IXTFuYyhbTkgyXSljKGMxMiljKFtjSF1bY0hdW2NIXTIpLWMzW2NIXVtjSF1jKFtjSF1bY0hdMylbTkhdQyg9TylbTkhdYzRjKEYpW2NIXVtjSF1jKFtjSF00KVtDSDNd

> <s_epik_cmdline>
J2VwaWtfcHl0aG9uJywgJy1waHQnLCAnMC41JywgJy1waCcsICc3LjUnLCAnLW50JywgJy1tYScsICcyMDAnLCAnLWltYWUnLCAnPGluZmlsZS5tYWU+JywgJy1vbWFlJywgJzxvdXRmaWxlLm1hZT4n

> <r_lp_tautomer_probability>
1

> <r_epik_Ionization_Penalty>
  0.0001

> <r_epik_Ionization_Penalty_Charging>
  0.0000

> <r_epik_Ionization_Penalty_Neutral>
  0.0001

> <r_epik_State_Penalty>
 -0.0000

> <r_epik_Charging_Adjusted_Penalty>
0

> <i_epik_Tot_Q>
0

> <i_epik_Tot_abs_Q>
0

> <s_lp_Force_Field>
OPLS3e

> <r_lp_Energy>
42.240573

> <b_lp_Chiralities_Consistent>
1

> <s_lp_Variant>
sdf/inactives_sanitized.sdf:148-1

$$$$
sdf/inactives_sanitized.sdf:149
                    3D
 Schrodinger Suite 2020-1.
 59 62  0  0  1  0            999 V2000
    2.4651    3.8146   -0.7948 C   0  0  0  0  0  0
    3.4477    3.6127    0.1757 C   0  0  0  0  0  0
    4.7243    4.2698    0.3008 C   0  0  0  0  0  0
   -5.0405   -3.9296    1.2406 N   0  0  0  0  0  0
    8.9995    5.7988    2.6787 C   0  0  0  0  0  0
    8.9739    4.9321    1.5893 C   0  0  0  0  0  0
    7.7755    4.3443    1.1714 C   0  0  0  0  0  0
    7.8349    3.3450    0.0205 C   0  0  0  0  0  0
   -0.6624    0.8656   -0.0077 C   0  0  0  0  0  0
   -1.3678   -0.2324    0.5013 C   0  0  0  0  0  0
   -2.5976   -0.5759   -0.0925 C   0  0  0  0  0  0
   -2.3679    1.2446   -1.5199 C   0  0  0  0  0  0
   -2.9500    2.0857   -2.6396 C   0  0  0  0  0  0
   -2.9869   -2.5418    1.4626 C   0  0  0  0  0  0
   -4.8540   -1.7147    0.1366 C   0  0  0  0  0  0
   -5.5506   -5.3076    1.1944 C   0  0  0  0  0  0
   -7.0786   -5.4667    1.3564 C   0  0  0  0  0  0
    0.5795    1.1777    0.5757 N   0  0  0  0  0  0
    1.4900    2.1572    0.2395 C   0  0  0  0  0  0
    1.4058    3.0313   -0.7357 N   0  0  0  0  0  0
    2.9477    2.2645    1.1737 S   0  0  0  0  0  0
    5.3348    4.1022    1.4939 N   0  0  0  0  0  0
    6.5789    4.6450    1.8627 C   0  0  0  0  0  0
    6.6179    5.5066    2.9740 C   0  0  0  0  0  0
    7.8256    6.0806    3.3710 C   0  0  0  0  0  0
    5.1907    5.8974    3.8767 Cl  0  0  0  0  0  0
    5.1780    4.9419   -0.6276 O   0  0  0  0  0  0
   -3.1152    0.1981   -1.0907 N   0  0  0  0  0  0
   -1.1589    1.6126   -1.0316 N   0  0  0  0  0  0
   -3.4029   -1.6097    0.3970 N   0  0  0  0  0  0
   -3.5796   -3.9626    1.3290 C   0  0  0  0  0  0
   -5.3837   -3.1633    0.0410 C   0  0  0  0  0  0
   -7.7945   -5.1534    0.1793 O   0  0  0  0  0  0
    2.5139    4.5581   -1.5775 H   0  0  0  0  0  0
    9.9319    6.2446    2.9923 H   0  0  0  0  0  0
    9.8978    4.7097    1.0751 H   0  0  0  0  0  0
    7.1225    2.5323    0.1641 H   0  0  0  0  0  0
    8.8173    2.8752   -0.0436 H   0  0  0  0  0  0
    7.6235    3.8340   -0.9305 H   0  0  0  0  0  0
   -0.9593   -0.7885    1.3312 H   0  0  0  0  0  0
   -2.2129    2.7719   -3.0601 H   0  0  0  0  0  0
   -3.7944    2.6690   -2.2716 H   0  0  0  0  0  0
   -3.3085    1.4486   -3.4491 H   0  0  0  0  0  0
   -1.9030   -2.6400    1.4924 H   0  0  0  0  0  0
   -3.2882   -2.1195    2.4225 H   0  0  0  0  0  0
   -5.3741   -1.2050    0.9492 H   0  0  0  0  0  0
   -5.1363   -1.1847   -0.7728 H   0  0  0  0  0  0
   -5.1611   -5.9131    0.3739 H   0  0  0  0  0  0
   -5.1388   -5.7902    2.0828 H   0  0  0  0  0  0
   -7.3078   -6.5013    1.6132 H   0  0  0  0  0  0
   -7.4467   -4.8658    2.1889 H   0  0  0  0  0  0
    0.8049    0.5535    1.3362 H   0  0  0  0  0  0
    4.8329    3.6090    2.2176 H   0  0  0  0  0  0
    7.8554    6.7482    4.2196 H   0  0  0  0  0  0
   -3.2805   -4.5463    2.2010 H   0  0  0  0  0  0
   -3.1515   -4.4649    0.4588 H   0  0  0  0  0  0
   -5.0016   -3.6524   -0.8576 H   0  0  0  0  0  0
   -6.4649   -3.1052   -0.0673 H   0  0  0  0  0  0
   -8.7313   -5.2765    0.3493 H   0  0  0  0  0  0
  1  2  2  0  0  0
  1 20  1  0  0  0
  1 34  1  0  0  0
  2  3  1  0  0  0
  2 21  1  0  0  0
  3 22  1  0  0  0
  3 27  2  0  0  0
  4 16  1  0  0  0
  4 31  1  0  0  0
  4 32  1  0  0  0
  5  6  2  0  0  0
  5 25  1  0  0  0
  5 35  1  0  0  0
  6  7  1  0  0  0
  6 36  1  0  0  0
  7  8  1  0  0  0
  7 23  2  0  0  0
  8 37  1  0  0  0
  8 38  1  0  0  0
  8 39  1  0  0  0
  9 10  2  0  0  0
  9 18  1  0  0  0
  9 29  1  0  0  0
 10 11  1  0  0  0
 10 40  1  0  0  0
 11 28  2  0  0  0
 11 30  1  0  0  0
 12 13  1  0  0  0
 12 28  1  0  0  0
 12 29  2  0  0  0
 13 41  1  0  0  0
 13 42  1  0  0  0
 13 43  1  0  0  0
 14 30  1  0  0  0
 14 31  1  0  0  0
 14 44  1  0  0  0
 14 45  1  0  0  0
 15 30  1  0  0  0
 15 32  1  0  0  0
 15 46  1  0  0  0
 15 47  1  0  0  0
 16 17  1  0  0  0
 16 48  1  0  0  0
 16 49  1  0  0  0
 17 33  1  0  0  0
 17 50  1  0  0  0
 17 51  1  0  0  0
 18 19  1  0  0  0
 18 52  1  0  0  0
 19 20  2  0  0  0
 19 21  1  0  0  0
 22 23  1  0  0  0
 22 53  1  0  0  0
 23 24  1  0  0  0
 24 25  2  0  0  0
 24 26  1  0  0  0
 25 54  1  0  0  0
 31 55  1  0  0  0
 31 56  1  0  0  0
 32 57  1  0  0  0
 32 58  1  0  0  0
 33 59  1  0  0  0
M  END
> <chembl_id>
CHEMBL1421

> <chembl_pref_name>
DASATINIB

> <s_m_source_file>
sdf/inactives_sanitized.sdf

> <i_m_source_file_index>
149

> <i_lp_mmshare_version>
49012

> <i_m_ct_stereo_status>
1

> <i_f3d_flags>
0

> <s_epik_input>
W0NIM11jMVtjSF1bY0hdW2NIXWMoQ2wpYzFbTkhdQyg9TyljMltjSF1uYyhzMilbTkhdYzNbY0hdYyhuYyhuMylbQ0gzXSlOKFtDSDJdW0NIMl00KVtDSDJdW0NIMl1ONFtDSDJdW0NIMl1bT0hd

> <s_epik_cmdline>
J2VwaWtfcHl0aG9uJywgJy1waHQnLCAnMC41JywgJy1waCcsICc3LjUnLCAnLW50JywgJy1tYScsICcyMDAnLCAnLWltYWUnLCAnPGluZmlsZS5tYWU+JywgJy1vbWFlJywgJzxvdXRmaWxlLm1hZT4n

> <r_lp_tautomer_probability>
1

> <r_epik_Ionization_Penalty>
  0.1768

> <r_epik_Ionization_Penalty_Charging>
  0.0000

> <r_epik_Ionization_Penalty_Neutral>
  0.1768

> <r_epik_State_Penalty>
 -0.0000

> <r_epik_Charging_Adjusted_Penalty>
0

> <i_epik_Tot_Q>
0

> <i_epik_Tot_abs_Q>
0

> <s_lp_Force_Field>
OPLS3e

> <r_lp_Energy>
50.365559

> <b_lp_Chiralities_Consistent>
1

> <s_lp_Variant>
sdf/inactives_sanitized.sdf:149-1

$$$$
sdf/inactives_sanitized.sdf:150
                    3D
 Schrodinger Suite 2020-1.
 20 22  0  0  1  0            999 V2000
   -1.6534    2.2440    1.1677 N   0  0  0  0  0  0
   -2.9930    2.2995    1.0993 N   0  0  0  0  0  0
   -1.2602    3.3473    0.5706 C   0  0  0  0  0  0
    0.0132    4.0113    0.2406 C   0  0  0  0  0  0
   -2.3219    4.1125    0.1190 C   0  0  0  0  0  0
   -0.3239    5.1994   -0.4237 C   0  0  0  0  0  0
   -1.8315    5.3613   -0.5555 C   0  0  0  0  0  0
   -3.4654    3.4219    0.4674 C   0  0  0  0  0  0
    1.3474    3.6718    0.4653 C   0  0  0  0  0  0
    0.6923    6.0501   -0.8640 C   0  0  0  0  0  0
    2.3560    4.5287    0.0214 C   0  0  0  0  0  0
    2.0295    5.7141   -0.6411 C   0  0  0  0  0  0
   -3.5764    1.5706    1.4846 H   0  0  0  0  0  0
   -2.1431    5.4165   -1.5988 H   0  0  0  0  0  0
   -2.1865    6.2650   -0.0593 H   0  0  0  0  0  0
   -4.5211    3.6078    0.3352 H   0  0  0  0  0  0
    1.6091    2.7572    0.9767 H   0  0  0  0  0  0
    0.4565    6.9703   -1.3778 H   0  0  0  0  0  0
    3.3918    4.2739    0.1910 H   0  0  0  0  0  0
    2.8138    6.3735   -0.9824 H   0  0  0  0  0  0
  1  2  1  0  0  0
  1  3  2  0  0  0
  2  8  1  0  0  0
  2 13  1  0  0  0
  3  4  1  0  0  0
  3  5  1  0  0  0
  4  6  2  0  0  0
  4  9  1  0  0  0
  5  7  1  0  0  0
  5  8  2  0  0  0
  6  7  1  0  0  0
  6 10  1  0  0  0
  7 14  1  0  0  0
  7 15  1  0  0  0
  8 16  1  0  0  0
  9 11  2  0  0  0
  9 17  1  0  0  0
 10 12  2  0  0  0
 10 18  1  0  0  0
 11 12  1  0  0  0
 11 19  1  0  0  0
 12 20  1  0  0  0
M  END
> <chembl_id>
CHEMBL1989423

> <chembl_pref_name>
None

> <s_m_source_file>
sdf/inactives_sanitized.sdf

> <i_m_source_file_index>
150

> <i_lp_mmshare_version>
49012

> <i_m_ct_stereo_status>
1

> <i_f3d_flags>
0

> <s_epik_input>
bjFbbkhdW2NIXWMyW0NIMl1jKGMzYzEyKVtjSF1bY0hdW2NIXVtjSF0z

> <s_epik_cmdline>
J2VwaWtfcHl0aG9uJywgJy1waHQnLCAnMC41JywgJy1waCcsICc3LjUnLCAnLW50JywgJy1tYScsICcyMDAnLCAnLWltYWUnLCAnPGluZmlsZS5tYWU+JywgJy1vbWFlJywgJzxvdXRmaWxlLm1hZT4n

> <r_lp_tautomer_probability>
1

> <r_epik_Ionization_Penalty>
  0.0000

> <r_epik_Ionization_Penalty_Charging>
  0.0000

> <r_epik_Ionization_Penalty_Neutral>
  0.0000

> <r_epik_State_Penalty>
 -0.0000

> <r_epik_Charging_Adjusted_Penalty>
0

> <i_epik_Tot_Q>
0

> <i_epik_Tot_abs_Q>
0

> <s_lp_Force_Field>
OPLS3e

> <r_lp_Energy>
8.926761

> <b_lp_Chiralities_Consistent>
1

> <s_lp_Variant>
sdf/inactives_sanitized.sdf:150-1

$$$$
sdf/inactives_sanitized.sdf:151
                    3D
 Schrodinger Suite 2020-1.
 37 39  0  0  1  0            999 V2000
    2.3045    1.2139    0.7257 N   0  0  0  0  0  0
    4.2224   -0.1792    0.2987 N   0  0  0  0  0  0
    0.1244    0.5399   -0.0328 N   0  0  0  0  0  0
   -0.2059    2.6498    1.0718 N   0  0  0  0  0  0
    3.6372    0.9401    0.8124 C   0  0  0  0  0  0
    1.5071    0.3144    0.0865 C   0  0  0  0  0  0
    4.5150    1.9377    1.5195 C   0  0  0  0  0  0
    3.4105   -1.0638   -0.3362 C   0  0  0  0  0  0
    2.0346   -0.8563   -0.4670 C   0  0  0  0  0  0
   -0.7160    1.5822    0.3978 C   0  0  0  0  0  0
    5.8964    1.7174    1.6636 C   0  0  0  0  0  0
    3.9811    3.1222    2.0585 C   0  0  0  0  0  0
   -2.0818    1.4809    0.1098 C   0  0  0  0  0  0
   -2.9463    2.4987    0.5274 C   0  0  0  0  0  0
   -1.0521    3.6328    1.4690 C   0  0  0  0  0  0
    4.0857   -2.3001   -0.8982 C   0  0  0  0  0  0
   -2.4231    3.5964    1.2165 C   0  0  0  0  0  0
    6.7099    2.6392    2.3168 C   0  0  0  0  0  0
    4.7908    4.0468    2.7124 C   0  0  0  0  0  0
    6.1536    3.8014    2.8395 C   0  0  0  0  0  0
   -4.4301    2.4255    0.2185 C   0  0  0  0  0  0
   -0.3634   -0.1947   -0.5232 H   0  0  0  0  0  0
    1.4063   -1.5740   -0.9752 H   0  0  0  0  0  0
    6.3589    0.8245    1.2693 H   0  0  0  0  0  0
    2.9265    3.3422    1.9761 H   0  0  0  0  0  0
   -2.4684    0.6263   -0.4275 H   0  0  0  0  0  0
   -0.6102    4.4628    1.9999 H   0  0  0  0  0  0
    3.3825   -2.9272   -1.4477 H   0  0  0  0  0  0
    4.5136   -2.8984   -0.0930 H   0  0  0  0  0  0
    4.8891   -2.0200   -1.5805 H   0  0  0  0  0  0
   -3.0619    4.4017    1.5494 H   0  0  0  0  0  0
    7.7690    2.4521    2.4166 H   0  0  0  0  0  0
    4.3619    4.9508    3.1190 H   0  0  0  0  0  0
    6.7833    4.5176    3.3465 H   0  0  0  0  0  0
   -4.8170    3.4136   -0.0340 H   0  0  0  0  0  0
   -4.9829    2.0521    1.0806 H   0  0  0  0  0  0
   -4.6276    1.7807   -0.6389 H   0  0  0  0  0  0
  1  5  2  0  0  0
  1  6  1  0  0  0
  2  5  1  0  0  0
  2  8  2  0  0  0
  3  6  1  0  0  0
  3 10  1  0  0  0
  3 22  1  0  0  0
  4 10  2  0  0  0
  4 15  1  0  0  0
  5  7  1  0  0  0
  6  9  2  0  0  0
  7 11  2  0  0  0
  7 12  1  0  0  0
  8  9  1  0  0  0
  8 16  1  0  0  0
  9 23  1  0  0  0
 10 13  1  0  0  0
 11 18  1  0  0  0
 11 24  1  0  0  0
 12 19  2  0  0  0
 12 25  1  0  0  0
 13 14  2  0  0  0
 13 26  1  0  0  0
 14 17  1  0  0  0
 14 21  1  0  0  0
 15 17  2  0  0  0
 15 27  1  0  0  0
 16 28  1  0  0  0
 16 29  1  0  0  0
 16 30  1  0  0  0
 17 31  1  0  0  0
 18 20  2  0  0  0
 18 32  1  0  0  0
 19 20  1  0  0  0
 19 33  1  0  0  0
 20 34  1  0  0  0
 21 35  1  0  0  0
 21 36  1  0  0  0
 21 37  1  0  0  0
M  END
> <chembl_id>
CHEMBL1985367

> <chembl_pref_name>
None

> <s_m_source_file>
sdf/inactives_sanitized.sdf

> <i_m_source_file_index>
151

> <i_lp_mmshare_version>
49012

> <i_m_ct_stereo_status>
1

> <i_f3d_flags>
0

> <s_epik_input>
W2NIXTFbY0hdW2NIXVtjSF1bY0hdYzEtYzJuYyhbY0hdYyhuMilbQ0gzXSlbTkhdYzNuW2NIXVtjSF1jKFtjSF0zKVtDSDNd

> <s_epik_cmdline>
J2VwaWtfcHl0aG9uJywgJy1waHQnLCAnMC41JywgJy1waCcsICc3LjUnLCAnLW50JywgJy1tYScsICcyMDAnLCAnLWltYWUnLCAnPGluZmlsZS5tYWU+JywgJy1vbWFlJywgJzxvdXRmaWxlLm1hZT4n

> <r_lp_tautomer_probability>
0.999999355400416

> <r_epik_Ionization_Penalty>
  0.0302

> <r_epik_Ionization_Penalty_Charging>
  0.0000

> <r_epik_Ionization_Penalty_Neutral>
  0.0302

> <r_epik_State_Penalty>
  0.0249

> <r_epik_Charging_Adjusted_Penalty>
0.0248620584128863

> <i_epik_Tot_Q>
0

> <i_epik_Tot_abs_Q>
0

> <s_lp_Force_Field>
OPLS3e

> <r_lp_Energy>
31.708892

> <b_lp_Chiralities_Consistent>
1

> <s_lp_Variant>
sdf/inactives_sanitized.sdf:151-1

$$$$
sdf/inactives_sanitized.sdf:152
                    3D
 Schrodinger Suite 2020-1.
 28 30  0  0  1  0            999 V2000
    6.2120   -0.1253   -0.0515 Br  0  0  0  0  0  0
   -2.8969    2.7194   -0.1773 S   0  0  0  0  0  0
   -2.2601    5.6130   -0.6905 O   0  0  0  0  0  0
   -2.0474   -1.2170    0.4053 N   0  0  0  0  0  0
   -0.0259    5.4417   -0.5239 N   0  0  0  0  0  0
   -0.7117    1.2340   -0.0061 C   0  0  0  0  0  0
   -2.1354    1.1545    0.0423 C   0  0  0  0  0  0
    0.0314    0.0353    0.1479 C   0  0  0  0  0  0
   -1.3265    3.4913   -0.3053 C   0  0  0  0  0  0
   -0.2816    2.5811   -0.2008 C   0  0  0  0  0  0
    1.5188    0.0026    0.0988 C   0  0  0  0  0  0
   -2.7612   -0.0805    0.2463 C   0  0  0  0  0  0
   -0.6978   -1.1433    0.3561 C   0  0  0  0  0  0
   -1.2576    4.9198   -0.5218 C   0  0  0  0  0  0
    2.2118    0.5973   -0.9626 C   0  0  0  0  0  0
    2.2444   -0.6386    1.1101 C   0  0  0  0  0  0
    3.6028    0.5612   -1.0083 C   0  0  0  0  0  0
    3.6355   -0.6766    1.0678 C   0  0  0  0  0  0
    4.3102   -0.0752    0.0084 C   0  0  0  0  0  0
    0.1026    6.4326   -0.6679 H   0  0  0  0  0  0
    0.7797    4.8517   -0.3773 H   0  0  0  0  0  0
    0.7598    2.8604   -0.2573 H   0  0  0  0  0  0
   -3.8370   -0.1691    0.2879 H   0  0  0  0  0  0
   -0.1845   -2.0861    0.4807 H   0  0  0  0  0  0
    1.6723    1.0854   -1.7613 H   0  0  0  0  0  0
    1.7302   -1.1058    1.9378 H   0  0  0  0  0  0
    4.1288    1.0228   -1.8311 H   0  0  0  0  0  0
    4.1869   -1.1709    1.8541 H   0  0  0  0  0  0
  1 19  1  0  0  0
  2  7  1  0  0  0
  2  9  1  0  0  0
  3 14  2  0  0  0
  4 12  2  0  0  0
  4 13  1  0  0  0
  5 14  1  0  0  0
  5 20  1  0  0  0
  5 21  1  0  0  0
  6  7  2  0  0  0
  6  8  1  0  0  0
  6 10  1  0  0  0
  7 12  1  0  0  0
  8 11  1  0  0  0
  8 13  2  0  0  0
  9 10  2  0  0  0
  9 14  1  0  0  0
 10 22  1  0  0  0
 11 15  2  0  0  0
 11 16  1  0  0  0
 12 23  1  0  0  0
 13 24  1  0  0  0
 15 17  1  0  0  0
 15 25  1  0  0  0
 16 18  2  0  0  0
 16 26  1  0  0  0
 17 19  2  0  0  0
 17 27  1  0  0  0
 18 19  1  0  0  0
 18 28  1  0  0  0
M  END
> <chembl_id>
CHEMBL1978195

> <chembl_pref_name>
None

> <s_m_source_file>
sdf/inactives_sanitized.sdf

> <i_m_source_file_index>
152

> <i_lp_mmshare_version>
49012

> <i_m_ct_stereo_status>
1

> <i_f3d_flags>
0

> <s_epik_input>
W2NIXTFbY0hdYyhCcilbY0hdW2NIXWMxLWMyW2NIXW5bY0hdYyhjMjMpc2MoW2NIXTMpQyg9TylbTkgyXQ==

> <s_epik_cmdline>
J2VwaWtfcHl0aG9uJywgJy1waHQnLCAnMC41JywgJy1waCcsICc3LjUnLCAnLW50JywgJy1tYScsICcyMDAnLCAnLWltYWUnLCAnPGluZmlsZS5tYWU+JywgJy1vbWFlJywgJzxvdXRmaWxlLm1hZT4n

> <r_lp_tautomer_probability>
1

> <r_epik_Ionization_Penalty>
  0.0000

> <r_epik_Ionization_Penalty_Charging>
  0.0000

> <r_epik_Ionization_Penalty_Neutral>
  0.0000

> <r_epik_State_Penalty>
 -0.0000

> <r_epik_Charging_Adjusted_Penalty>
0

> <i_epik_Tot_Q>
0

> <i_epik_Tot_abs_Q>
0

> <s_lp_Force_Field>
OPLS3e

> <r_lp_Energy>
20.576833

> <b_lp_Chiralities_Consistent>
1

> <s_lp_Variant>
sdf/inactives_sanitized.sdf:152-1

$$$$
sdf/inactives_sanitized.sdf:153
                    3D
 Schrodinger Suite 2020-1.
 61 64  0  0  1  0            999 V2000
   -1.5922    3.3915    2.0418 O   0  0  0  0  0  0
    1.7708    4.3993    1.5244 O   0  0  0  0  0  0
    5.7235   -0.5369   -0.7160 O   0  0  0  0  0  0
    8.3899   -0.6350   -0.9059 O   0  0  0  0  0  0
    0.2294   -0.0292    0.2282 N   0  0  0  0  0  0
   -0.6071   -1.0412   -0.0666 N   0  0  0  0  0  0
    0.1828    2.2286    1.1211 N   0  0  0  0  0  0
    8.4106   -1.3783   -3.0197 N   0  0  0  0  0  0
   -0.4492    1.0461    0.7673 C   0  0  0  0  0  0
   -1.8219   -0.6573    0.2744 C   0  0  0  0  0  0
   -1.7767    0.6395    0.8074 C   0  0  0  0  0  0
    1.6150   -0.1760   -0.0289 C   0  0  0  0  0  0
   -3.0242   -1.5895    0.0619 C   0  0  0  0  0  0
    0.0761    5.7017    2.6203 C   0  0  0  0  0  0
   -0.4084    3.2885    1.7124 C   0  0  0  0  0  0
    0.6189    4.4740    1.9622 C   0  0  0  0  0  0
   -0.0105    6.9727    1.9542 C   0  0  0  0  0  0
   -0.5295    8.0963    2.6772 C   0  0  0  0  0  0
    2.5546    0.2484    0.9165 C   0  0  0  0  0  0
    2.0489   -0.7503   -1.2293 C   0  0  0  0  0  0
   -0.3494    5.5954    3.9493 C   0  0  0  0  0  0
    4.3553   -0.4489   -0.5443 C   0  0  0  0  0  0
    0.3866    7.1811    0.5985 C   0  0  0  0  0  0
    3.9145    0.1113    0.6549 C   0  0  0  0  0  0
    3.4103   -0.8841   -1.4866 C   0  0  0  0  0  0
   -0.9439    7.9311    4.0199 C   0  0  0  0  0  0
   -4.3512   -0.8607    0.3854 C   0  0  0  0  0  0
   -2.8961   -2.8204    0.9890 C   0  0  0  0  0  0
   -3.0788   -2.0647   -1.4108 C   0  0  0  0  0  0
   -0.8516    6.6912    4.6376 C   0  0  0  0  0  0
   -0.6235    9.3590    2.0396 C   0  0  0  0  0  0
    0.2794    8.4342    0.0035 C   0  0  0  0  0  0
   -0.2203    9.5147    0.7181 C   0  0  0  0  0  0
    6.2431   -1.0563   -1.9406 C   0  0  0  0  0  0
    7.7760   -1.0022   -1.9067 C   0  0  0  0  0  0
    1.1717    2.2878    0.9239 H   0  0  0  0  0  0
    9.4196   -1.3639   -3.0545 H   0  0  0  0  0  0
    7.8900   -1.6759   -3.8317 H   0  0  0  0  0  0
   -2.6190    1.2125    1.1652 H   0  0  0  0  0  0
    2.2426    0.6761    1.8582 H   0  0  0  0  0  0
    1.3369   -1.0864   -1.9696 H   0  0  0  0  0  0
   -0.2906    4.6490    4.4693 H   0  0  0  0  0  0
    0.7751    6.3615    0.0128 H   0  0  0  0  0  0
    4.6336    0.4428    1.3900 H   0  0  0  0  0  0
    3.7128   -1.3271   -2.4232 H   0  0  0  0  0  0
   -1.3362    8.7771    4.5660 H   0  0  0  0  0  0
   -5.2160   -1.5071    0.2280 H   0  0  0  0  0  0
   -4.4866    0.0215   -0.2422 H   0  0  0  0  0  0
   -4.3831   -0.5245    1.4228 H   0  0  0  0  0  0
   -2.8459   -2.5247    2.0380 H   0  0  0  0  0  0
   -1.9918   -3.3925    0.7764 H   0  0  0  0  0  0
   -3.7435   -3.4987    0.8797 H   0  0  0  0  0  0
   -3.9420   -2.7055   -1.5968 H   0  0  0  0  0  0
   -2.1896   -2.6334   -1.6866 H   0  0  0  0  0  0
   -3.1426   -1.2205   -2.0989 H   0  0  0  0  0  0
   -1.1717    6.5785    5.6630 H   0  0  0  0  0  0
   -1.0137   10.2053    2.5867 H   0  0  0  0  0  0
    0.5865    8.5678   -1.0233 H   0  0  0  0  0  0
   -0.2981   10.4817    0.2431 H   0  0  0  0  0  0
    5.9313   -2.0954   -2.0618 H   0  0  0  0  0  0
    5.8857   -0.4611   -2.7834 H   0  0  0  0  0  0
  1 15  2  0  0  0
  2 16  2  0  0  0
  3 22  1  0  0  0
  3 34  1  0  0  0
  4 35  2  0  0  0
  5  6  1  0  0  0
  5  9  1  0  0  0
  5 12  1  0  0  0
  6 10  2  0  0  0
  7  9  1  0  0  0
  7 15  1  0  0  0
  7 36  1  0  0  0
  8 35  1  0  0  0
  8 37  1  0  0  0
  8 38  1  0  0  0
  9 11  2  0  0  0
 10 11  1  0  0  0
 10 13  1  0  0  0
 11 39  1  0  0  0
 12 19  2  0  0  0
 12 20  1  0  0  0
 13 27  1  0  0  0
 13 28  1  0  0  0
 13 29  1  0  0  0
 14 16  1  0  0  0
 14 17  1  0  0  0
 14 21  2  0  0  0
 15 16  1  0  0  0
 17 18  2  0  0  0
 17 23  1  0  0  0
 18 26  1  0  0  0
 18 31  1  0  0  0
 19 24  1  0  0  0
 19 40  1  0  0  0
 20 25  2  0  0  0
 20 41  1  0  0  0
 21 30  1  0  0  0
 21 42  1  0  0  0
 22 24  2  0  0  0
 22 25  1  0  0  0
 23 32  2  0  0  0
 23 43  1  0  0  0
 24 44  1  0  0  0
 25 45  1  0  0  0
 26 30  2  0  0  0
 26 46  1  0  0  0
 27 47  1  0  0  0
 27 48  1  0  0  0
 27 49  1  0  0  0
 28 50  1  0  0  0
 28 51  1  0  0  0
 28 52  1  0  0  0
 29 53  1  0  0  0
 29 54  1  0  0  0
 29 55  1  0  0  0
 30 56  1  0  0  0
 31 33  2  0  0  0
 31 57  1  0  0  0
 32 33  1  0  0  0
 32 58  1  0  0  0
 33 59  1  0  0  0
 34 35  1  0  0  0
 34 60  1  0  0  0
 34 61  1  0  0  0
M  END
> <chembl_id>
CHEMBL1977634

> <chembl_pref_name>
None

> <s_m_source_file>
sdf/inactives_sanitized.sdf

> <i_m_source_file_index>
153

> <i_lp_mmshare_version>
49012

> <i_m_ct_stereo_status>
1

> <i_f3d_flags>
0

> <s_epik_input>
W2NIXTFbY0hdW2NIXVtjSF1jKGMxMilbY0hdW2NIXVtjSF1jMkMoPU8pQyg9TylbTkhdYzNbY0hdYyhDKFtDSDNdKShbQ0gzXSlbQ0gzXSlubjMtYzRbY0hdW2NIXWMoW2NIXVtjSF00KU9bQ0gyXUMoPU8pW05IMl0=

> <s_epik_cmdline>
J2VwaWtfcHl0aG9uJywgJy1waHQnLCAnMC41JywgJy1waCcsICc3LjUnLCAnLW50JywgJy1tYScsICcyMDAnLCAnLWltYWUnLCAnPGluZmlsZS5tYWU+JywgJy1vbWFlJywgJzxvdXRmaWxlLm1hZT4n

> <r_lp_tautomer_probability>
1

> <r_epik_Ionization_Penalty>
  0.0000

> <r_epik_Ionization_Penalty_Charging>
  0.0000

> <r_epik_Ionization_Penalty_Neutral>
  0.0000

> <r_epik_State_Penalty>
 -0.0000

> <r_epik_Charging_Adjusted_Penalty>
0

> <i_epik_Tot_Q>
0

> <i_epik_Tot_abs_Q>
0

> <s_lp_Force_Field>
OPLS3e

> <r_lp_Energy>
56.612991

> <b_lp_Chiralities_Consistent>
1

> <s_lp_Variant>
sdf/inactives_sanitized.sdf:153-1

$$$$
sdf/inactives_sanitized.sdf:154
                    3D
 Schrodinger Suite 2020-1.
 29 31  0  0  1  0            999 V2000
    2.3138    0.8543   -0.0344 O   0  0  0  0  0  0
   -0.0822    3.3415   -1.1940 N   0  0  0  0  0  0
    1.0453    5.2148   -0.1083 N   0  0  0  0  0  0
    1.5260    4.8452    2.2465 N   0  0  0  0  0  0
   -0.0649    2.6246   -0.0361 C   0  0  0  0  0  0
    0.4905    3.1722    1.1391 C   0  0  0  0  0  0
   -0.6773    1.2659   -0.0854 C   0  0  0  0  0  0
    1.0313    4.4835    1.0121 C   0  0  0  0  0  0
    0.0355    0.0705    0.1929 C   0  0  0  0  0  0
    0.6778    2.7722    2.5042 C   0  0  0  0  0  0
   -2.0455    1.1831   -0.3816 C   0  0  0  0  0  0
    0.4716    4.5808   -1.1656 C   0  0  0  0  0  0
    1.3148    3.8220    3.1409 C   0  0  0  0  0  0
    1.5190    0.0353    0.4267 C   0  0  0  0  0  0
   -0.6513   -1.1548    0.1591 C   0  0  0  0  0  0
   -2.7098   -0.0395   -0.4029 C   0  0  0  0  0  0
   -2.0121   -1.2095   -0.1294 C   0  0  0  0  0  0
    2.0375   -0.9783    1.4489 C   0  0  0  0  0  0
    1.9771    5.7117    2.5018 H   0  0  0  0  0  0
    0.3906    1.8395    2.9672 H   0  0  0  0  0  0
   -2.6077    2.0825   -0.5890 H   0  0  0  0  0  0
    0.4536    5.1293   -2.0959 H   0  0  0  0  0  0
    1.6391    3.9316    4.1655 H   0  0  0  0  0  0
   -0.1381   -2.0884    0.3411 H   0  0  0  0  0  0
   -3.7649   -0.0784   -0.6309 H   0  0  0  0  0  0
   -2.5229   -2.1610   -0.1505 H   0  0  0  0  0  0
    1.3673   -1.0212    2.3077 H   0  0  0  0  0  0
    3.0238   -0.6924    1.8154 H   0  0  0  0  0  0
    2.0931   -1.9740    1.0095 H   0  0  0  0  0  0
  1 14  2  0  0  0
  2  5  2  0  0  0
  2 12  1  0  0  0
  3  8  1  0  0  0
  3 12  2  0  0  0
  4  8  1  0  0  0
  4 13  1  0  0  0
  4 19  1  0  0  0
  5  6  1  0  0  0
  5  7  1  0  0  0
  6  8  2  0  0  0
  6 10  1  0  0  0
  7  9  2  0  0  0
  7 11  1  0  0  0
  9 14  1  0  0  0
  9 15  1  0  0  0
 10 13  2  0  0  0
 10 20  1  0  0  0
 11 16  2  0  0  0
 11 21  1  0  0  0
 12 22  1  0  0  0
 13 23  1  0  0  0
 14 18  1  0  0  0
 15 17  2  0  0  0
 15 24  1  0  0  0
 16 17  1  0  0  0
 16 25  1  0  0  0
 17 26  1  0  0  0
 18 27  1  0  0  0
 18 28  1  0  0  0
 18 29  1  0  0  0
M  END
> <chembl_id>
CHEMBL1977931

> <chembl_pref_name>
None

> <s_m_source_file>
sdf/inactives_sanitized.sdf

> <i_m_source_file_index>
154

> <i_lp_mmshare_version>
49012

> <i_m_ct_stereo_status>
1

> <i_f3d_flags>
0

> <s_epik_input>
W2NIXTFbY0hdW2NIXVtjSF1jKEMoPU8pW0NIM10pYzEtYzJuW2NIXW5jKGMyMylbbkhdW2NIXVtjSF0z

> <s_epik_cmdline>
J2VwaWtfcHl0aG9uJywgJy1waHQnLCAnMC41JywgJy1waCcsICc3LjUnLCAnLW50JywgJy1tYScsICcyMDAnLCAnLWltYWUnLCAnPGluZmlsZS5tYWU+JywgJy1vbWFlJywgJzxvdXRmaWxlLm1hZT4n

> <r_lp_tautomer_probability>
1

> <r_epik_Ionization_Penalty>
  0.0000

> <r_epik_Ionization_Penalty_Charging>
  0.0000

> <r_epik_Ionization_Penalty_Neutral>
  0.0000

> <r_epik_State_Penalty>
 -0.0000

> <r_epik_Charging_Adjusted_Penalty>
0

> <i_epik_Tot_Q>
0

> <i_epik_Tot_abs_Q>
0

> <s_lp_Force_Field>
OPLS3e

> <r_lp_Energy>
31.696619

> <b_lp_Chiralities_Consistent>
1

> <s_lp_Variant>
sdf/inactives_sanitized.sdf:154-1

$$$$
sdf/inactives_sanitized.sdf:155
                    3D
 Schrodinger Suite 2020-1.
 51 53  0  0  1  0            999 V2000
    5.5658   -2.2096    7.3357 F   0  0  0  0  0  0
    0.8534    0.3318    2.8971 O   0  0  0  0  0  0
   -2.7388   -2.3428   -0.2238 O   0  0  0  0  0  0
    2.0735   -0.5949    1.2232 N   0  0  0  0  0  0
    5.5520   -5.7426    8.1890 N   0  0  0  0  0  0
    3.6425   -3.1058    5.3564 C   0  0  0  0  0  0
    4.3113   -4.0060    6.3388 C   0  0  0  0  0  0
    2.3785   -1.4095    3.4945 C   0  0  0  0  0  0
    1.6932   -0.4850    2.5128 C   0  0  0  0  0  0
    5.2301   -3.5202    7.2866 C   0  0  0  0  0  0
    3.0626   -1.9014    5.7682 C   0  0  0  0  0  0
    3.5749   -3.4575    4.0043 C   0  0  0  0  0  0
    0.0590    0.1280   -0.1285 C   0  0  0  0  0  0
    1.5731    0.2115    0.1022 C   0  0  2  0  0  0
    2.4360   -1.0633    4.8501 C   0  0  0  0  0  0
    2.9521   -2.6211    3.0817 C   0  0  0  0  0  0
    4.0368   -5.3824    6.3397 C   0  0  0  0  0  0
   -0.6136   -1.0999   -0.0644 C   0  0  0  0  0  0
   -2.0028   -1.1743   -0.2657 C   0  0  0  0  0  0
    5.8199   -4.4132    8.1840 C   0  0  0  0  0  0
   -0.6704    1.2919   -0.3902 C   0  0  0  0  0  0
    4.6692   -6.2078    7.2711 C   0  0  0  0  0  0
   -2.7067    0.0029   -0.5278 C   0  0  0  0  0  0
   -2.0479    1.2296   -0.5896 C   0  0  0  0  0  0
    2.3366   -0.1376   -1.1864 C   0  0  0  0  0  0
   -2.0742   -3.5772    0.0313 C   0  0  0  0  0  0
   -3.1104   -4.7100   -0.0007 C   0  0  0  0  0  0
   -2.4939   -6.0919    0.2556 C   0  0  0  0  0  0
    2.8787   -1.1694    1.0228 H   0  0  0  0  0  0
    3.0898   -1.6104    6.8083 H   0  0  0  0  0  0
    4.0120   -4.3839    3.6604 H   0  0  0  0  0  0
    1.8239    1.2474    0.3434 H   0  0  0  0  0  0
    1.9995   -0.1404    5.2054 H   0  0  0  0  0  0
    2.9186   -2.9319    2.0472 H   0  0  0  0  0  0
    3.3376   -5.8083    5.6347 H   0  0  0  0  0  0
   -0.0400   -1.9908    0.1407 H   0  0  0  0  0  0
    6.5305   -4.0649    8.9191 H   0  0  0  0  0  0
   -0.1719    2.2492   -0.4389 H   0  0  0  0  0  0
    4.4685   -7.2689    7.2917 H   0  0  0  0  0  0
   -3.7749   -0.0341   -0.6846 H   0  0  0  0  0  0
   -2.6056    2.1321   -0.7912 H   0  0  0  0  0  0
    2.0479    0.5204   -2.0071 H   0  0  0  0  0  0
    2.1435   -1.1644   -1.5007 H   0  0  0  0  0  0
    3.4138   -0.0318   -1.0505 H   0  0  0  0  0  0
   -1.3091   -3.7563   -0.7268 H   0  0  0  0  0  0
   -1.5872   -3.5466    1.0082 H   0  0  0  0  0  0
   -3.8833   -4.5173    0.7446 H   0  0  0  0  0  0
   -3.6123   -4.7159   -0.9692 H   0  0  0  0  0  0
   -3.2566   -6.8705    0.2222 H   0  0  0  0  0  0
   -2.0170   -6.1376    1.2353 H   0  0  0  0  0  0
   -1.7409   -6.3347   -0.4952 H   0  0  0  0  0  0
  1 10  1  0  0  0
  2  9  2  0  0  0
  3 19  1  0  0  0
  3 26  1  0  0  0
  4  9  1  0  0  0
  4 14  1  0  0  0
  4 29  1  0  0  0
  5 20  2  0  0  0
  5 22  1  0  0  0
  6  7  1  0  0  0
  6 11  2  0  0  0
  6 12  1  0  0  0
  7 10  2  0  0  0
  7 17  1  0  0  0
  8  9  1  0  0  0
  8 15  2  0  0  0
  8 16  1  0  0  0
 10 20  1  0  0  0
 11 15  1  0  0  0
 11 30  1  0  0  0
 12 16  2  0  0  0
 12 31  1  0  0  0
 13 14  1  0  0  0
 13 18  2  0  0  0
 13 21  1  0  0  0
 14 25  1  0  0  0
 14 32  1  0  0  0
 15 33  1  0  0  0
 16 34  1  0  0  0
 17 22  2  0  0  0
 17 35  1  0  0  0
 18 19  1  0  0  0
 18 36  1  0  0  0
 19 23  2  0  0  0
 20 37  1  0  0  0
 21 24  2  0  0  0
 21 38  1  0  0  0
 22 39  1  0  0  0
 23 24  1  0  0  0
 23 40  1  0  0  0
 24 41  1  0  0  0
 25 42  1  0  0  0
 25 43  1  0  0  0
 25 44  1  0  0  0
 26 27  1  0  0  0
 26 45  1  0  0  0
 26 46  1  0  0  0
 27 28  1  0  0  0
 27 47  1  0  0  0
 27 48  1  0  0  0
 28 49  1  0  0  0
 28 50  1  0  0  0
 28 51  1  0  0  0
M  END
> <chembl_id>
CHEMBL1971606

> <chembl_pref_name>
None

> <s_m_source_file>
sdf/inactives_sanitized.sdf

> <i_m_source_file_index>
155

> <i_lp_mmshare_version>
49012

> <i_m_ct_stereo_status>
1

> <i_f3d_flags>
0

> <s_epik_input>
W2NIXTFbY0hdbltjSF1jKEYpYzEtYzJbY0hdW2NIXWMoW2NIXVtjSF0yKUMoPU8pW05IXVtDQEBIXShbQ0gzXSljM1tjSF1jKFtjSF1bY0hdW2NIXTMpT1tDSDJdW0NIMl1bQ0gzXQ==

> <s_epik_cmdline>
J2VwaWtfcHl0aG9uJywgJy1waHQnLCAnMC41JywgJy1waCcsICc3LjUnLCAnLW50JywgJy1tYScsICcyMDAnLCAnLWltYWUnLCAnPGluZmlsZS5tYWU+JywgJy1vbWFlJywgJzxvdXRmaWxlLm1hZT4n

> <r_lp_tautomer_probability>
1

> <r_epik_Ionization_Penalty>
  0.0000

> <r_epik_Ionization_Penalty_Charging>
  0.0000

> <r_epik_Ionization_Penalty_Neutral>
  0.0000

> <r_epik_State_Penalty>
 -0.0000

> <r_epik_Charging_Adjusted_Penalty>
0

> <i_epik_Tot_Q>
0

> <i_epik_Tot_abs_Q>
0

> <s_lp_Force_Field>
OPLS3e

> <r_lp_Energy>
42.906315

> <b_lp_Chiralities_Consistent>
1

> <s_lp_Variant>
sdf/inactives_sanitized.sdf:155-1

$$$$
sdf/inactives_sanitized.sdf:156
                    3D
 Schrodinger Suite 2020-1.
 28 30  0  0  1  0            999 V2000
    2.8112   -4.0422    2.3742 F   0  0  0  0  0  0
   -3.0101    0.2750   -0.0010 N   0  0  0  0  0  0
   -4.0621    2.2709    0.0010 N   0  0  0  0  0  0
   -2.1012    3.7424    0.0013 N   0  0  0  0  0  0
   -0.0047    2.4836   -0.0002 N   0  0  0  0  0  0
    0.0308    0.0819   -0.0013 N   0  0  0  0  0  0
   -2.0841    1.2890   -0.0004 C   0  0  0  0  0  0
   -2.7180    2.5565    0.0007 C   0  0  0  0  0  0
   -0.6760    1.2952   -0.0006 C   0  0  0  0  0  0
   -4.1642    0.8980   -0.0001 C   0  0  0  0  0  0
   -0.7449    3.6250    0.0007 C   0  0  0  0  0  0
    1.4881    0.0446   -0.0010 C   0  0  0  0  0  0
    1.9741   -1.3937   -0.0026 C   0  0  0  0  0  0
    2.1822   -2.0675    1.2056 C   0  0  0  0  0  0
    2.1793   -2.0659   -1.2121 C   0  0  0  0  0  0
    2.6070   -3.3967    1.2038 C   0  0  0  0  0  0
    2.6046   -3.3949   -1.2128 C   0  0  0  0  0  0
    2.8196   -4.0598   -0.0053 C   0  0  0  0  0  0
   -4.8527    2.8990    0.0017 H   0  0  0  0  0  0
   -0.4786   -0.7903   -0.0014 H   0  0  0  0  0  0
   -5.1398    0.4341   -0.0003 H   0  0  0  0  0  0
   -0.1884    4.5508    0.0009 H   0  0  0  0  0  0
    1.8747    0.5706   -0.8755 H   0  0  0  0  0  0
    1.8741    0.5688    0.8749 H   0  0  0  0  0  0
    2.0157   -1.5622    2.1458 H   0  0  0  0  0  0
    2.0097   -1.5597   -2.1515 H   0  0  0  0  0  0
    2.7663   -3.9094   -2.1486 H   0  0  0  0  0  0
    3.1480   -5.0887   -0.0068 H   0  0  0  0  0  0
  1 16  1  0  0  0
  2  7  1  0  0  0
  2 10  2  0  0  0
  3  8  1  0  0  0
  3 10  1  0  0  0
  3 19  1  0  0  0
  4  8  1  0  0  0
  4 11  2  0  0  0
  5  9  2  0  0  0
  5 11  1  0  0  0
  6  9  1  0  0  0
  6 12  1  0  0  0
  6 20  1  0  0  0
  7  8  2  0  0  0
  7  9  1  0  0  0
 10 21  1  0  0  0
 11 22  1  0  0  0
 12 13  1  0  0  0
 12 23  1  0  0  0
 12 24  1  0  0  0
 13 14  2  0  0  0
 13 15  1  0  0  0
 14 16  1  0  0  0
 14 25  1  0  0  0
 15 17  2  0  0  0
 15 26  1  0  0  0
 16 18  2  0  0  0
 17 18  1  0  0  0
 17 27  1  0  0  0
 18 28  1  0  0  0
M  END
> <chembl_id>
CHEMBL2003785

> <chembl_pref_name>
None

> <s_m_source_file>
sdf/inactives_sanitized.sdf

> <i_m_source_file_index>
156

> <i_lp_mmshare_version>
49012

> <i_m_ct_stereo_status>
1

> <i_f3d_flags>
0

> <s_epik_input>
W2NIXTFbY0hdW2NIXWMoRilbY0hdYzFbQ0gyXVtOSF1jMm5bY0hdbmMoYzIzKVtuSF1bY0hdbjM=

> <s_epik_cmdline>
J2VwaWtfcHl0aG9uJywgJy1waHQnLCAnMC41JywgJy1waCcsICc3LjUnLCAnLW50JywgJy1tYScsICcyMDAnLCAnLWltYWUnLCAnPGluZmlsZS5tYWU+JywgJy1vbWFlJywgJzxvdXRmaWxlLm1hZT4n

> <r_lp_tautomer_probability>
1

> <r_epik_Ionization_Penalty>
  0.0042

> <r_epik_Ionization_Penalty_Charging>
  0.0000

> <r_epik_Ionization_Penalty_Neutral>
  0.0042

> <r_epik_State_Penalty>
 -0.0000

> <r_epik_Charging_Adjusted_Penalty>
0

> <i_epik_Tot_Q>
0

> <i_epik_Tot_abs_Q>
0

> <s_lp_Force_Field>
OPLS3e

> <r_lp_Energy>
29.209445

> <b_lp_Chiralities_Consistent>
1

> <s_lp_Variant>
sdf/inactives_sanitized.sdf:156-1

$$$$
sdf/inactives_sanitized.sdf:157
                    3D
 Schrodinger Suite 2020-1.
 37 39  0  0  1  0            999 V2000
   -0.0029    0.0860    0.0104 N   0  0  0  0  0  0
    5.8084    4.9114    0.0153 N   0  0  0  0  0  0
    0.8603   -3.4927   -0.0804 N   0  0  0  0  0  0
    3.5609    1.2291   -0.0261 C   0  0  0  0  0  0
    1.4087    0.0513   -0.0132 C   0  0  0  0  0  0
    2.0957   -1.1818   -0.0525 C   0  0  0  0  0  0
    4.3367    2.5022   -0.0120 C   0  0  0  0  0  0
    2.1604    1.2383    0.0010 C   0  0  0  0  0  0
    4.2140   -0.0065   -0.0668 C   0  0  0  0  0  0
    3.4927   -1.1965   -0.0791 C   0  0  0  0  0  0
    5.5156    2.6234    0.7401 C   0  0  0  0  0  0
    3.9138    3.6186   -0.7505 C   0  0  0  0  0  0
    1.4062   -2.4723   -0.0681 C   0  0  0  0  0  0
   -0.7710    1.3242    0.0531 C   0  0  0  0  0  0
   -2.2573    1.0114    0.0438 C   0  0  0  0  0  0
    6.2153    3.8314    0.7275 C   0  0  0  0  0  0
    4.6692    4.7920   -0.7109 C   0  0  0  0  0  0
   -2.9437    0.8486    1.2502 C   0  0  0  0  0  0
   -2.9260    0.8441   -1.1722 C   0  0  0  0  0  0
   -4.3003    0.5335    1.2403 C   0  0  0  0  0  0
   -4.2823    0.5287   -1.1813 C   0  0  0  0  0  0
   -4.9632    0.3761    0.0248 C   0  0  0  0  0  0
   -0.5134   -0.7856    0.0053 H   0  0  0  0  0  0
    1.6586    2.1938    0.0406 H   0  0  0  0  0  0
    5.2932   -0.0522   -0.0952 H   0  0  0  0  0  0
    4.0362   -2.1311   -0.1111 H   0  0  0  0  0  0
    5.8848    1.7982    1.3317 H   0  0  0  0  0  0
    3.0175    3.5803   -1.3527 H   0  0  0  0  0  0
   -0.5143    1.8929    0.9483 H   0  0  0  0  0  0
   -0.5197    1.9510   -0.8040 H   0  0  0  0  0  0
    7.1239    3.9470    1.2997 H   0  0  0  0  0  0
    4.3633    5.6628   -1.2721 H   0  0  0  0  0  0
   -2.4282    0.9632    2.1929 H   0  0  0  0  0  0
   -2.3962    0.9551   -2.1073 H   0  0  0  0  0  0
   -4.8349    0.4078    2.1702 H   0  0  0  0  0  0
   -4.8028    0.3990   -2.1187 H   0  0  0  0  0  0
   -6.0146    0.1289    0.0172 H   0  0  0  0  0  0
  1  5  1  0  0  0
  1 14  1  0  0  0
  1 23  1  0  0  0
  2 16  2  0  0  0
  2 17  1  0  0  0
  3 13  3  0  0  0
  4  7  1  0  0  0
  4  8  2  0  0  0
  4  9  1  0  0  0
  5  6  2  0  0  0
  5  8  1  0  0  0
  6 10  1  0  0  0
  6 13  1  0  0  0
  7 11  2  0  0  0
  7 12  1  0  0  0
  8 24  1  0  0  0
  9 10  2  0  0  0
  9 25  1  0  0  0
 10 26  1  0  0  0
 11 16  1  0  0  0
 11 27  1  0  0  0
 12 17  2  0  0  0
 12 28  1  0  0  0
 14 15  1  0  0  0
 14 29  1  0  0  0
 14 30  1  0  0  0
 15 18  2  0  0  0
 15 19  1  0  0  0
 16 31  1  0  0  0
 17 32  1  0  0  0
 18 20  1  0  0  0
 18 33  1  0  0  0
 19 21  2  0  0  0
 19 34  1  0  0  0
 20 22  2  0  0  0
 20 35  1  0  0  0
 21 22  1  0  0  0
 21 36  1  0  0  0
 22 37  1  0  0  0
M  END
> <chembl_id>
CHEMBL1967992

> <chembl_pref_name>
None

> <s_m_source_file>
sdf/inactives_sanitized.sdf

> <i_m_source_file_index>
157

> <i_lp_mmshare_version>
49012

> <i_m_ct_stereo_status>
1

> <i_f3d_flags>
0

> <s_epik_input>
W2NIXTFbY0hdW2NIXVtjSF1bY0hdYzFbQ0gyXVtOSF1jKGMoQyNOKVtjSF1bY0hdMilbY0hdYzItYzNbY0hdW2NIXW5bY0hdW2NIXTM=

> <s_epik_cmdline>
J2VwaWtfcHl0aG9uJywgJy1waHQnLCAnMC41JywgJy1waCcsICc3LjUnLCAnLW50JywgJy1tYScsICcyMDAnLCAnLWltYWUnLCAnPGluZmlsZS5tYWU+JywgJy1vbWFlJywgJzxvdXRmaWxlLm1hZT4n

> <r_lp_tautomer_probability>
1

> <r_epik_Ionization_Penalty>
  0.0017

> <r_epik_Ionization_Penalty_Charging>
  0.0000

> <r_epik_Ionization_Penalty_Neutral>
  0.0017

> <r_epik_State_Penalty>
 -0.0000

> <r_epik_Charging_Adjusted_Penalty>
0

> <i_epik_Tot_Q>
0

> <i_epik_Tot_abs_Q>
0

> <s_lp_Force_Field>
OPLS3e

> <r_lp_Energy>
44.911828

> <b_lp_Chiralities_Consistent>
1

> <s_lp_Variant>
sdf/inactives_sanitized.sdf:157-1

$$$$
sdf/inactives_sanitized.sdf:158
                    3D
 Schrodinger Suite 2020-1.
 25 27  0  0  1  0            999 V2000
   -2.0187    0.7535   -0.2099 O   0  0  0  0  0  0
    1.9737   -0.3008    1.3185 O   0  0  0  0  0  0
   -0.6721    1.1199   -0.2055 N   0  0  0  0  0  0
   -7.3205   -2.7052    0.0274 N   0  0  0  0  0  0
   -8.0695   -1.5873    0.0210 N   0  0  0  0  0  0
   -3.4752   -1.2034   -0.0174 C   0  0  0  0  0  0
   -2.1146   -0.5903   -0.0351 C   0  0  0  0  0  0
   -5.8822   -1.0111   -0.0027 C   0  0  0  0  0  0
   -5.9687   -2.4235    0.0137 C   0  0  0  0  0  0
   -4.6209   -0.3978   -0.0189 C   0  0  0  0  0  0
   -0.8330   -1.0894    0.0831 C   0  0  0  0  0  0
    0.0151    0.0126   -0.0231 C   0  0  0  0  0  0
   -3.5965   -2.5973   -0.0012 C   0  0  0  0  0  0
   -4.8353   -3.2406    0.0143 C   0  0  0  0  0  0
   -7.2407   -0.5753    0.0026 C   0  0  0  0  0  0
    1.5281    0.0522    0.0254 C   0  0  0  0  0  0
    2.9330   -0.2654    1.3324 H   0  0  0  0  0  0
   -7.7619   -3.6132    0.0417 H   0  0  0  0  0  0
   -4.5414    0.6796   -0.0303 H   0  0  0  0  0  0
   -0.5426   -2.1188    0.2307 H   0  0  0  0  0  0
   -2.7068   -3.2103   -0.0022 H   0  0  0  0  0  0
   -4.9044   -4.3185    0.0260 H   0  0  0  0  0  0
   -7.6083    0.4401   -0.0065 H   0  0  0  0  0  0
    1.9276    1.0385   -0.2156 H   0  0  0  0  0  0
    1.9643   -0.6375   -0.6976 H   0  0  0  0  0  0
  1  3  1  0  0  0
  1  7  1  0  0  0
  2 16  1  0  0  0
  2 17  1  0  0  0
  3 12  2  0  0  0
  4  5  1  0  0  0
  4  9  1  0  0  0
  4 18  1  0  0  0
  5 15  2  0  0  0
  6  7  1  0  0  0
  6 10  2  0  0  0
  6 13  1  0  0  0
  7 11  2  0  0  0
  8  9  2  0  0  0
  8 10  1  0  0  0
  8 15  1  0  0  0
  9 14  1  0  0  0
 10 19  1  0  0  0
 11 12  1  0  0  0
 11 20  1  0  0  0
 12 16  1  0  0  0
 13 14  2  0  0  0
 13 21  1  0  0  0
 14 22  1  0  0  0
 15 23  1  0  0  0
 16 24  1  0  0  0
 16 25  1  0  0  0
M  END
> <chembl_id>
CHEMBL1974617

> <chembl_pref_name>
None

> <s_m_source_file>
sdf/inactives_sanitized.sdf

> <i_m_source_file_index>
158

> <i_lp_mmshare_version>
49012

> <i_m_ct_stereo_status>
1

> <i_f3d_flags>
0

> <s_epik_input>
W09IXVtDSDJdYyhbY0hdMSlub2MxLWMoW2NIXTIpW2NIXVtjSF1jKGMyMylbbkhdbltjSF0z

> <s_epik_cmdline>
J2VwaWtfcHl0aG9uJywgJy1waHQnLCAnMC41JywgJy1waCcsICc3LjUnLCAnLW50JywgJy1tYScsICcyMDAnLCAnLWltYWUnLCAnPGluZmlsZS5tYWU+JywgJy1vbWFlJywgJzxvdXRmaWxlLm1hZT4n

> <r_lp_tautomer_probability>
1

> <r_epik_Ionization_Penalty>
  0.0006

> <r_epik_Ionization_Penalty_Charging>
  0.0000

> <r_epik_Ionization_Penalty_Neutral>
  0.0006

> <r_epik_State_Penalty>
 -0.0000

> <r_epik_Charging_Adjusted_Penalty>
0

> <i_epik_Tot_Q>
0

> <i_epik_Tot_abs_Q>
0

> <s_lp_Force_Field>
OPLS3e

> <r_lp_Energy>
14.498888

> <b_lp_Chiralities_Consistent>
1

> <s_lp_Variant>
sdf/inactives_sanitized.sdf:158-1

$$$$
sdf/inactives_sanitized.sdf:159
                    3D
 Schrodinger Suite 2020-1.
 44 47  0  0  1  0            999 V2000
   -6.1048   -0.5412   -2.2160 O   0  0  0  0  0  0
   -0.3363    2.0060    1.1108 O   0  0  0  0  0  0
   -4.9863    0.1691    0.1780 N   0  0  0  0  0  0
    0.0502    0.0898   -0.0889 N   0  0  0  0  0  0
   -2.2195    0.7022    0.4480 C   0  0  0  0  0  0
   -3.0904    0.8014    1.5908 C   0  0  0  0  0  0
   -4.4819    0.5232    1.3899 C   0  0  0  0  0  0
   -4.1446    0.0702   -0.8791 C   0  0  0  0  0  0
   -2.7792    0.3249   -0.7799 C   0  0  0  0  0  0
   -0.7392    1.0010    0.5240 C   0  0  0  0  0  0
   -4.7589   -0.3278   -2.1809 C   0  0  0  0  0  0
   -2.6668    1.1398    2.9119 C   0  0  0  0  0  0
   -5.3846    0.6077    2.4781 C   0  0  0  0  0  0
    1.4544    0.0749   -0.2274 C   0  0  0  0  0  0
   -4.2384   -0.5438   -3.4534 C   0  0  0  0  0  0
   -3.5797    1.2127    3.9601 C   0  0  0  0  0  0
   -4.9268    0.9519    3.7453 C   0  0  0  0  0  0
    2.0821   -1.1618   -0.4748 C   0  0  0  0  0  0
    2.2413    1.2387   -0.1582 C   0  0  0  0  0  0
   -6.4332   -0.8853   -3.4871 C   0  0  0  0  0  0
   -5.3025   -0.8985   -4.2832 C   0  0  0  0  0  0
    3.6275    1.1750   -0.3147 C   0  0  0  0  0  0
    3.4717   -1.2158   -0.6243 C   0  0  0  0  0  0
    4.2403   -0.0574   -0.5406 C   0  0  0  0  0  0
    1.2859   -2.4593   -0.5747 C   0  0  0  0  0  0
    4.4626    2.4395   -0.2222 C   0  0  0  0  0  0
   -0.4131   -0.7311   -0.4498 H   0  0  0  0  0  0
   -2.1584    0.2430   -1.6612 H   0  0  0  0  0  0
   -1.6273    1.3382    3.1214 H   0  0  0  0  0  0
   -6.4339    0.4000    2.3215 H   0  0  0  0  0  0
   -3.2030   -0.4540   -3.7474 H   0  0  0  0  0  0
   -3.2373    1.4728    4.9510 H   0  0  0  0  0  0
   -5.6224    1.0124    4.5695 H   0  0  0  0  0  0
    1.7934    2.2082   -0.0037 H   0  0  0  0  0  0
   -7.4781   -1.0861   -3.6735 H   0  0  0  0  0  0
   -5.2536   -1.1350   -5.3359 H   0  0  0  0  0  0
    3.9648   -2.1597   -0.8068 H   0  0  0  0  0  0
    5.3125   -0.1207   -0.6586 H   0  0  0  0  0  0
    1.9267   -3.3322   -0.7062 H   0  0  0  0  0  0
    0.5913   -2.4134   -1.4142 H   0  0  0  0  0  0
    0.6967   -2.6113    0.3304 H   0  0  0  0  0  0
    5.4924    2.2179    0.0607 H   0  0  0  0  0  0
    4.0635    3.1073    0.5424 H   0  0  0  0  0  0
    4.4608    2.9702   -1.1747 H   0  0  0  0  0  0
  1 11  1  0  0  0
  1 20  1  0  0  0
  2 10  2  0  0  0
  3  7  2  0  0  0
  3  8  1  0  0  0
  4 10  1  0  0  0
  4 14  1  0  0  0
  4 27  1  0  0  0
  5  6  2  0  0  0
  5  9  1  0  0  0
  5 10  1  0  0  0
  6  7  1  0  0  0
  6 12  1  0  0  0
  7 13  1  0  0  0
  8  9  2  0  0  0
  8 11  1  0  0  0
  9 28  1  0  0  0
 11 15  2  0  0  0
 12 16  2  0  0  0
 12 29  1  0  0  0
 13 17  2  0  0  0
 13 30  1  0  0  0
 14 18  2  0  0  0
 14 19  1  0  0  0
 15 21  1  0  0  0
 15 31  1  0  0  0
 16 17  1  0  0  0
 16 32  1  0  0  0
 17 33  1  0  0  0
 18 23  1  0  0  0
 18 25  1  0  0  0
 19 22  2  0  0  0
 19 34  1  0  0  0
 20 21  2  0  0  0
 20 35  1  0  0  0
 21 36  1  0  0  0
 22 24  1  0  0  0
 22 26  1  0  0  0
 23 24  2  0  0  0
 23 37  1  0  0  0
 24 38  1  0  0  0
 25 39  1  0  0  0
 25 40  1  0  0  0
 25 41  1  0  0  0
 26 42  1  0  0  0
 26 43  1  0  0  0
 26 44  1  0  0  0
M  END
> <chembl_id>
CHEMBL1984296

> <chembl_pref_name>
None

> <s_m_source_file>
sdf/inactives_sanitized.sdf

> <i_m_source_file_index>
159

> <i_lp_mmshare_version>
49012

> <i_m_ct_stereo_status>
1

> <i_f3d_flags>
0

> <s_epik_input>
W2NIXTFbY0hdW2NIXVtjSF1jKGMxMiluYygtYzNvW2NIXVtjSF1bY0hdMylbY0hdYzJDKD1PKVtOSF1jNGMoW0NIM10pW2NIXVtjSF1jKFtjSF00KVtDSDNd

> <s_epik_cmdline>
J2VwaWtfcHl0aG9uJywgJy1waHQnLCAnMC41JywgJy1waCcsICc3LjUnLCAnLW50JywgJy1tYScsICcyMDAnLCAnLWltYWUnLCAnPGluZmlsZS5tYWU+JywgJy1vbWFlJywgJzxvdXRmaWxlLm1hZT4n

> <r_lp_tautomer_probability>
1

> <r_epik_Ionization_Penalty>
  0.0000

> <r_epik_Ionization_Penalty_Charging>
  0.0000

> <r_epik_Ionization_Penalty_Neutral>
  0.0000

> <r_epik_State_Penalty>
 -0.0000

> <r_epik_Charging_Adjusted_Penalty>
0

> <i_epik_Tot_Q>
0

> <i_epik_Tot_abs_Q>
0

> <s_lp_Force_Field>
OPLS3e

> <r_lp_Energy>
41.501309

> <b_lp_Chiralities_Consistent>
1

> <s_lp_Variant>
sdf/inactives_sanitized.sdf:159-1

$$$$
sdf/inactives_sanitized.sdf:160
                    3D
 Schrodinger Suite 2020-1.
 41 44  0  0  1  0            999 V2000
   -4.5969    5.1347    0.6883 F   0  0  0  0  0  0
   -0.4582    2.5861   -0.1542 O   0  0  0  0  0  0
    4.8258    6.1108    0.9597 N   0  0  0  0  0  0
    5.8712    6.7256    1.5427 N   0  0  0  0  0  0
   -0.0194    0.3401   -0.0776 N   0  0  0  0  0  0
   -2.1226    1.0134   -0.0909 N   0  0  0  0  0  0
    4.4519    2.3836    0.9055 C   0  0  0  0  0  0
    4.9046    4.7364    1.0694 C   0  0  0  0  0  0
    6.1008    4.4882    1.7795 C   0  0  0  0  0  0
    3.5968    1.2442    0.4483 C   0  0  0  0  0  0
    4.0687    3.7070    0.6265 C   0  0  0  0  0  0
    5.6393    2.1383    1.6122 C   0  0  0  0  0  0
    6.4700    3.1666    2.0553 C   0  0  0  0  0  0
    2.1979    1.3599    0.4118 C   0  0  0  0  0  0
    1.3868    0.2989   -0.0261 C   0  0  0  0  0  0
    6.6371    5.7857    2.0341 C   0  0  0  0  0  0
    4.1684    0.0287    0.0440 C   0  0  0  0  0  0
    1.9882   -0.9022   -0.4068 C   0  0  0  0  0  0
   -0.8348    1.4143   -0.1056 C   0  0  0  0  0  0
    3.3737   -1.0357   -0.3762 C   0  0  0  0  0  0
   -3.2954    1.7911   -0.0498 C   0  0  0  0  0  0
   -3.3418    3.1491    0.3128 C   0  0  0  0  0  0
   -4.5603    3.8287    0.3393 C   0  0  0  0  0  0
   -4.4884    1.1315   -0.3651 C   0  0  0  0  0  0
   -5.7405    3.1629    0.0115 C   0  0  0  0  0  0
   -5.7048    1.8141   -0.3387 C   0  0  0  0  0  0
    4.1016    6.6531    0.5110 H   0  0  0  0  0  0
   -0.4624   -0.5634   -0.1555 H   0  0  0  0  0  0
   -2.2836    0.0192   -0.1567 H   0  0  0  0  0  0
    3.1652    3.9275    0.0768 H   0  0  0  0  0  0
    5.9307    1.1233    1.8397 H   0  0  0  0  0  0
    7.3762    2.9437    2.5989 H   0  0  0  0  0  0
    1.7506    2.2790    0.7558 H   0  0  0  0  0  0
    7.5497    6.0328    2.5559 H   0  0  0  0  0  0
    5.2408   -0.0996    0.0450 H   0  0  0  0  0  0
    1.3866   -1.7378   -0.7354 H   0  0  0  0  0  0
    3.8332   -1.9645   -0.6807 H   0  0  0  0  0  0
   -2.4550    3.6955    0.5918 H   0  0  0  0  0  0
   -4.4807    0.0855   -0.6371 H   0  0  0  0  0  0
   -6.6828    3.6905    0.0334 H   0  0  0  0  0  0
   -6.6198    1.2973   -0.5879 H   0  0  0  0  0  0
  1 23  1  0  0  0
  2 19  2  0  0  0
  3  4  1  0  0  0
  3  8  1  0  0  0
  3 27  1  0  0  0
  4 16  2  0  0  0
  5 15  1  0  0  0
  5 19  1  0  0  0
  5 28  1  0  0  0
  6 19  1  0  0  0
  6 21  1  0  0  0
  6 29  1  0  0  0
  7 10  1  0  0  0
  7 11  2  0  0  0
  7 12  1  0  0  0
  8  9  2  0  0  0
  8 11  1  0  0  0
  9 13  1  0  0  0
  9 16  1  0  0  0
 10 14  2  0  0  0
 10 17  1  0  0  0
 11 30  1  0  0  0
 12 13  2  0  0  0
 12 31  1  0  0  0
 13 32  1  0  0  0
 14 15  1  0  0  0
 14 33  1  0  0  0
 15 18  2  0  0  0
 16 34  1  0  0  0
 17 20  2  0  0  0
 17 35  1  0  0  0
 18 20  1  0  0  0
 18 36  1  0  0  0
 20 37  1  0  0  0
 21 22  2  0  0  0
 21 24  1  0  0  0
 22 23  1  0  0  0
 22 38  1  0  0  0
 23 25  2  0  0  0
 24 26  2  0  0  0
 24 39  1  0  0  0
 25 26  1  0  0  0
 25 40  1  0  0  0
 26 41  1  0  0  0
M  END
> <chembl_id>
CHEMBL1983393

> <chembl_pref_name>
None

> <s_m_source_file>
sdf/inactives_sanitized.sdf

> <i_m_source_file_index>
160

> <i_lp_mmshare_version>
49012

> <i_m_ct_stereo_status>
1

> <i_f3d_flags>
0

> <s_epik_input>
W2NIXTFbY0hdW2NIXWMoRilbY0hdYzFbTkhdQyg9TylbTkhdYyhbY0hdW2NIXVtjSF0yKVtjSF1jMi1jKFtjSF0zKVtjSF1bY0hdYyhjMzQpW2NIXW5bbkhdNA==

> <s_epik_cmdline>
J2VwaWtfcHl0aG9uJywgJy1waHQnLCAnMC41JywgJy1waCcsICc3LjUnLCAnLW50JywgJy1tYScsICcyMDAnLCAnLWltYWUnLCAnPGluZmlsZS5tYWU+JywgJy1vbWFlJywgJzxvdXRmaWxlLm1hZT4n

> <r_lp_tautomer_probability>
1

> <r_epik_Ionization_Penalty>
  0.0000

> <r_epik_Ionization_Penalty_Charging>
  0.0000

> <r_epik_Ionization_Penalty_Neutral>
  0.0000

> <r_epik_State_Penalty>
 -0.0000

> <r_epik_Charging_Adjusted_Penalty>
0

> <i_epik_Tot_Q>
0

> <i_epik_Tot_abs_Q>
0

> <s_lp_Force_Field>
OPLS3e

> <r_lp_Energy>
43.758432

> <b_lp_Chiralities_Consistent>
1

> <s_lp_Variant>
sdf/inactives_sanitized.sdf:160-1

$$$$
sdf/inactives_sanitized.sdf:161
                    3D
 Schrodinger Suite 2020-1.
 57 60  0  0  1  0            999 V2000
    4.3595   -4.0747    4.6296 O   0  5  0  0  0  0
    0.1722   -3.4773   -4.1183 O   0  0  0  0  0  0
    4.4377    0.0589   -0.0948 N   0  0  0  0  0  0
    2.4036   -0.3830   -1.2539 N   0  0  0  0  0  0
    0.3506   -0.5314   -0.0899 N   0  0  0  0  0  0
    5.7631    0.2008   -0.3409 N   0  0  0  0  0  0
    4.5649    0.4122    2.2867 N   0  0  0  0  0  0
    3.6787   -3.0171    4.7024 N   0  3  0  0  0  0
    3.7275   -0.2065   -1.2732 C   0  0  0  0  0  0
    3.8108    0.1483    1.1257 C   0  0  0  0  0  0
    1.7399   -0.3127   -0.0615 C   0  0  0  0  0  0
    4.6912   -0.2302   -2.3152 C   0  0  0  0  0  0
    2.4243   -0.0414    1.1362 C   0  0  0  0  0  0
    5.8874    0.0280   -1.6400 C   0  0  0  0  0  0
   -0.3814   -0.8997   -1.3410 C   0  0  2  0  0  0
    4.4658   -0.4756   -3.7926 C   0  0  0  0  0  0
   -0.4634   -0.1735    1.0960 C   0  0  0  0  0  0
    3.9621    0.6005    3.6052 C   0  0  0  0  0  0
   -1.9214   -0.6674   -1.4184 C   0  0  0  0  0  0
    0.0111   -2.2345   -2.0336 C   0  0  0  0  0  0
    3.4365   -0.6978    4.2132 C   0  0  0  0  0  0
   -1.9906   -0.2831    0.9968 C   0  0  0  0  0  0
   -2.4830    0.2511   -0.3391 C   0  0  0  0  0  0
    3.9761   -1.9023   -4.0790 C   0  0  0  0  0  0
    4.1740   -1.8880    4.1511 C   0  0  0  0  0  0
    2.1990   -0.7118    4.8681 C   0  0  0  0  0  0
   -0.2430   -2.2524   -3.5518 C   0  0  0  0  0  0
    1.7157   -1.8964    5.4277 C   0  0  0  0  0  0
    2.4843   -3.0573    5.3310 C   0  0  0  0  0  0
    0.0092   -3.4476   -5.0640 H   0  0  0  0  0  0
    5.5522    0.6000    2.1831 H   0  0  0  0  0  0
    1.8894    0.0130    2.0701 H   0  0  0  0  0  0
    6.8589    0.0887   -2.1089 H   0  0  0  0  0  0
   -0.0294   -0.0798   -1.9699 H   0  0  0  0  0  0
    3.7404    0.2376   -4.1858 H   0  0  0  0  0  0
    5.3855   -0.3007   -4.3524 H   0  0  0  0  0  0
   -0.1416   -0.8175    1.9157 H   0  0  0  0  0  0
   -0.2170    0.8497    1.3844 H   0  0  0  0  0  0
    4.7132    1.0226    4.2733 H   0  0  0  0  0  0
    3.1612    1.3384    3.5350 H   0  0  0  0  0  0
   -2.1972   -0.2689   -2.3959 H   0  0  0  0  0  0
   -2.4364   -1.6237   -1.3070 H   0  0  0  0  0  0
    1.0636   -2.4592   -1.8664 H   0  0  0  0  0  0
   -0.5296   -3.0540   -1.5578 H   0  0  0  0  0  0
   -2.3093   -1.3134    1.1644 H   0  0  0  0  0  0
   -2.4417    0.2859    1.8104 H   0  0  0  0  0  0
   -2.1509    1.2792   -0.4922 H   0  0  0  0  0  0
   -3.5732    0.2584   -0.3734 H   0  0  0  0  0  0
    3.8450   -2.0622   -5.1495 H   0  0  0  0  0  0
    3.0181   -2.0989   -3.5965 H   0  0  0  0  0  0
    4.6876   -2.6453   -3.7172 H   0  0  0  0  0  0
    5.1411   -1.9728    3.6750 H   0  0  0  0  0  0
    1.6081    0.1901    4.9400 H   0  0  0  0  0  0
    0.2859   -1.4280   -4.0316 H   0  0  0  0  0  0
   -1.2957   -2.0787   -3.7747 H   0  0  0  0  0  0
    0.7598   -1.9138    5.9302 H   0  0  0  0  0  0
    2.1829   -4.0127    5.7373 H   0  0  0  0  0  0
  1  8  1  0  0  0
  2 27  1  0  0  0
  2 30  1  0  0  0
  3  6  1  0  0  0
  3  9  1  0  0  0
  3 10  1  0  0  0
  4  9  1  0  0  0
  4 11  2  0  0  0
  5 11  1  0  0  0
  5 15  1  0  0  0
  5 17  1  0  0  0
  6 14  2  0  0  0
  7 10  1  0  0  0
  7 18  1  0  0  0
  7 31  1  0  0  0
  8 25  2  0  0  0
  8 29  1  0  0  0
  9 12  2  0  0  0
 10 13  2  0  0  0
 11 13  1  0  0  0
 12 14  1  0  0  0
 12 16  1  0  0  0
 13 32  1  0  0  0
 14 33  1  0  0  0
 15 19  1  0  0  0
 15 20  1  0  0  0
 15 34  1  0  0  0
 16 24  1  0  0  0
 16 35  1  0  0  0
 16 36  1  0  0  0
 17 22  1  0  0  0
 17 37  1  0  0  0
 17 38  1  0  0  0
 18 21  1  0  0  0
 18 39  1  0  0  0
 18 40  1  0  0  0
 19 23  1  0  0  0
 19 41  1  0  0  0
 19 42  1  0  0  0
 20 27  1  0  0  0
 20 43  1  0  0  0
 20 44  1  0  0  0
 21 25  1  0  0  0
 21 26  2  0  0  0
 22 23  1  0  0  0
 22 45  1  0  0  0
 22 46  1  0  0  0
 23 47  1  0  0  0
 23 48  1  0  0  0
 24 49  1  0  0  0
 24 50  1  0  0  0
 24 51  1  0  0  0
 25 52  1  0  0  0
 26 28  1  0  0  0
 26 53  1  0  0  0
 27 54  1  0  0  0
 27 55  1  0  0  0
 28 29  2  0  0  0
 28 56  1  0  0  0
 29 57  1  0  0  0
M  CHG  2   1  -1   8   1
M  END
> <chembl_id>
CHEMBL2006674

> <chembl_pref_name>
None

> <s_m_source_file>
sdf/inactives_sanitized.sdf

> <i_m_source_file_index>
161

> <i_lp_mmshare_version>
49012

> <i_m_ct_stereo_status>
1

> <i_f3d_flags>
0

> <s_epik_input>
W08tXVtuK10xW2NIXWMoW2NIXVtjSF1bY0hdMSlbQ0gyXVtOSF1jMltjSF1jKG5jKG4yMyljKFtjSF1uMylbQ0gyXVtDSDNdKU40W0NAQEhdKFtDSDJdW0NIMl1bT0hdKVtDSDJdW0NIMl1bQ0gyXVtDSDJdNA==

> <s_epik_cmdline>
J2VwaWtfcHl0aG9uJywgJy1waHQnLCAnMC41JywgJy1waCcsICc3LjUnLCAnLW50JywgJy1tYScsICcyMDAnLCAnLWltYWUnLCAnPGluZmlsZS5tYWU+JywgJy1vbWFlJywgJzxvdXRmaWxlLm1hZT4n

> <r_lp_tautomer_probability>
1

> <r_epik_Ionization_Penalty>
  0.0001

> <r_epik_Ionization_Penalty_Charging>
  0.0000

> <r_epik_Ionization_Penalty_Neutral>
  0.0001

> <r_epik_State_Penalty>
 -0.0000

> <r_epik_Charging_Adjusted_Penalty>
3.96349009107374e-07

> <i_epik_Tot_Q>
0

> <i_epik_Tot_abs_Q>
2

> <s_lp_Force_Field>
OPLS3e

> <r_lp_Energy>
46.021284

> <b_lp_Chiralities_Consistent>
1

> <s_lp_Variant>
sdf/inactives_sanitized.sdf:161-1

$$$$
sdf/inactives_sanitized.sdf:162
                    3D
 Schrodinger Suite 2020-1.
 36 38  0  0  1  0            999 V2000
   -3.1526    3.8847    0.1366 O   0  0  0  0  0  0
   -5.2504    0.2552   -0.8762 N   0  0  0  0  0  0
    0.0327    2.6083    0.0818 N   0  0  0  0  0  0
   -0.8800    3.5753    0.1528 N   0  0  0  0  0  0
   -0.1047    0.2295   -0.0998 N   0  0  0  0  0  0
   -2.0157    1.7380    0.0092 C   0  0  0  0  0  0
   -0.6037    1.5211   -0.0050 C   0  0  0  0  0  0
   -4.4596    1.0069   -0.0387 C   0  0  0  0  0  0
   -2.1521    3.1700    0.1074 C   0  0  0  0  0  0
   -3.0168    0.8260   -0.0704 C   0  0  0  0  0  0
   -6.5854    0.5547   -0.7001 C   0  0  0  0  0  0
   -6.6459    1.5449    0.3228 C   0  0  0  0  0  0
   -5.2965    1.8012    0.7273 C   0  0  0  0  0  0
   -7.7331    0.0588   -1.3289 C   0  0  0  0  0  0
   -7.9002    2.0396    0.7134 C   0  0  0  0  0  0
    1.3163   -0.1011   -0.0462 C   0  0  0  0  0  0
   -8.9587    0.5795   -0.9111 C   0  0  0  0  0  0
   -9.0441    1.5473    0.0870 C   0  0  0  0  0  0
    1.5897   -1.4265   -0.7737 C   0  0  0  0  0  0
    1.8423   -0.1442    1.4003 C   0  0  0  0  0  0
   -4.8584   -0.4102   -1.5266 H   0  0  0  0  0  0
   -0.7318   -0.5479    0.0466 H   0  0  0  0  0  0
   -2.7433   -0.2149   -0.1750 H   0  0  0  0  0  0
   -4.9663    2.4899    1.4907 H   0  0  0  0  0  0
   -7.6825   -0.6921   -2.1034 H   0  0  0  0  0  0
   -7.9826    2.7900    1.4858 H   0  0  0  0  0  0
    1.8677    0.6729   -0.5841 H   0  0  0  0  0  0
   -9.8669    0.2221   -1.3738 H   0  0  0  0  0  0
  -10.0137    1.9223    0.3806 H   0  0  0  0  0  0
    2.6537   -1.6656   -0.7729 H   0  0  0  0  0  0
    1.2699   -1.3767   -1.8154 H   0  0  0  0  0  0
    1.0610   -2.2578   -0.3053 H   0  0  0  0  0  0
    2.9067   -0.3795    1.4263 H   0  0  0  0  0  0
    1.3200   -0.8958    1.9936 H   0  0  0  0  0  0
    1.7123    0.8176    1.8976 H   0  0  0  0  0  0
   -0.5558    4.5288    0.2246 H   0  0  0  0  0  0
  1  9  2  0  0  0
  2  8  1  0  0  0
  2 11  1  0  0  0
  2 21  1  0  0  0
  3  4  1  0  0  0
  3  7  2  0  0  0
  4  9  1  0  0  0
  4 36  1  0  0  0
  5  7  1  0  0  0
  5 16  1  0  0  0
  5 22  1  0  0  0
  6  7  1  0  0  0
  6  9  1  0  0  0
  6 10  2  3  0  0
  8 10  1  0  0  0
  8 13  2  0  0  0
 10 23  1  0  0  0
 11 12  2  0  0  0
 11 14  1  0  0  0
 12 13  1  0  0  0
 12 15  1  0  0  0
 13 24  1  0  0  0
 14 17  2  0  0  0
 14 25  1  0  0  0
 15 18  2  0  0  0
 15 26  1  0  0  0
 16 19  1  0  0  0
 16 20  1  0  0  0
 16 27  1  0  0  0
 17 18  1  0  0  0
 17 28  1  0  0  0
 18 29  1  0  0  0
 19 30  1  0  0  0
 19 31  1  0  0  0
 19 32  1  0  0  0
 20 33  1  0  0  0
 20 34  1  0  0  0
 20 35  1  0  0  0
M  END
> <chembl_id>
CHEMBL1988692

> <chembl_pref_name>
None

> <s_m_source_file>
sdf/inactives_sanitized.sdf

> <i_m_source_file_index>
162

> <i_lp_mmshare_version>
49012

> <i_m_ct_stereo_status>
1

> <i_f3d_flags>
0

> <s_epik_input>
Tz1DMVtOSF1OPUMoW05IXVtDSF0oW0NIM10pW0NIM10pL0MxPVtDSF0vYyhbbkhdMilbY0hdYyhjMjMpW2NIXVtjSF1bY0hdW2NIXTM=

> <s_epik_cmdline>
J2VwaWtfcHl0aG9uJywgJy1waHQnLCAnMC41JywgJy1waCcsICc3LjUnLCAnLW50JywgJy1tYScsICcyMDAnLCAnLWltYWUnLCAnPGluZmlsZS5tYWU+JywgJy1vbWFlJywgJzxvdXRmaWxlLm1hZT4n

> <r_lp_tautomer_probability>
0.499994684841767

> <r_epik_Ionization_Penalty>
  0.0837

> <r_epik_Ionization_Penalty_Charging>
  0.0000

> <r_epik_Ionization_Penalty_Neutral>
  0.0837

> <r_epik_State_Penalty>
  0.0000

> <r_epik_Charging_Adjusted_Penalty>
4.71106790372538e-08

> <i_epik_Tot_Q>
0

> <i_epik_Tot_abs_Q>
0

> <s_epik_Chemistry_Notes>
This compound has an imine and may undergo hydrolysis.

> <s_lp_Force_Field>
OPLS3e

> <r_lp_Energy>
13.915366

> <b_lp_Chiralities_Consistent>
1

> <s_lp_Variant>
sdf/inactives_sanitized.sdf:162-1

$$$$
sdf/inactives_sanitized.sdf:163
                    3D
 Schrodinger Suite 2020-1.
 68 71  0  0  1  0            999 V2000
   -2.1533    2.2275   -0.4299 C   0  0  0  0  0  0
   -1.6572    0.9304   -0.3188 C   0  0  0  0  0  0
   -2.5336   -0.1549   -0.4672 C   0  0  0  0  0  0
   -3.4992    2.4741   -0.6840 C   0  0  0  0  0  0
   -4.4075    1.3932   -0.8393 C   0  0  0  0  0  0
   -3.9087    0.0579   -0.7284 C   0  0  0  0  0  0
   -4.7240   -1.0252   -0.8689 N   0  0  0  0  0  0
   -6.0307   -0.7735   -1.1193 C   0  0  0  0  0  0
   -6.6125    0.4410   -1.2444 N   0  0  0  0  0  0
   -5.8067    1.5259   -1.1057 C   0  0  0  0  0  0
   -6.3735    2.8114   -1.2249 N   0  0  0  0  0  0
   -7.6589    3.1992   -1.5348 C   0  0  0  0  0  0
   -8.7934    2.4494   -1.8998 C   0  0  0  0  0  0
   -9.8209    3.3499   -2.1218 C   0  0  0  0  0  0
   -9.2377    4.5613   -1.8642 N   0  0  0  0  0  0
   -7.9493    4.4811   -1.5179 N   0  0  0  0  0  0
  -11.2699    3.1904   -2.5384 C   0  0  0  0  0  0
  -11.4863    3.4195   -4.0412 C   0  0  0  0  0  0
  -12.1741    2.4531   -4.6875 N   0  0  0  0  0  0
  -12.4964    2.3518   -6.0539 C   0  0  0  0  0  0
  -11.8826    3.0948   -7.0783 C   0  0  0  0  0  0
  -12.2633    2.9076   -8.4076 C   0  0  0  0  0  0
  -13.2506    1.9775   -8.7291 C   0  0  0  0  0  0
  -13.8562    1.2288   -7.7210 C   0  0  0  0  0  0
  -13.4776    1.4130   -6.3909 C   0  0  0  0  0  0
  -14.8101    0.3224   -8.0326 F   0  0  0  0  0  0
   -0.3047    0.8113   -0.0644 O   0  0  0  0  0  0
    0.2721   -0.4840    0.0832 C   0  0  0  0  0  0
    1.7730   -0.3396    0.3782 C   0  0  0  0  0  0
    2.0554    0.4244    1.6867 C   0  0  0  0  0  0
    3.5756    0.6662    1.8644 N   0  3  2  0  0  0
    4.3097   -0.6099    2.3569 C   0  0  0  0  0  0
    5.8306   -0.5491    2.0991 C   0  0  0  0  0  0
    6.1216   -0.2390    0.7507 O   0  0  0  0  0  0
    3.8777    1.8996    2.7528 C   0  0  0  0  0  0
    3.6098    3.2078    1.9893 C   0  0  0  0  0  0
  -11.0553    4.4495   -4.5620 O   0  0  0  0  0  0
   -1.4796    3.0647   -0.3167 H   0  0  0  0  0  0
   -2.1822   -1.1733   -0.3889 H   0  0  0  0  0  0
   -3.8492    3.4928   -0.7641 H   0  0  0  0  0  0
   -6.6759   -1.6325   -1.2308 H   0  0  0  0  0  0
   -5.6868    3.5358   -1.0743 H   0  0  0  0  0  0
   -8.8669    1.3778   -2.0044 H   0  0  0  0  0  0
   -9.7148    5.4488   -1.9342 H   0  0  0  0  0  0
  -11.9081    3.8877   -1.9942 H   0  0  0  0  0  0
  -11.6260    2.2000   -2.2487 H   0  0  0  0  0  0
  -12.5428    1.7073   -4.1158 H   0  0  0  0  0  0
  -11.1009    3.8097   -6.8762 H   0  0  0  0  0  0
  -11.7877    3.4808   -9.1898 H   0  0  0  0  0  0
  -13.5426    1.8343   -9.7590 H   0  0  0  0  0  0
  -13.9561    0.8214   -5.6232 H   0  0  0  0  0  0
   -0.2126   -1.0314    0.8939 H   0  0  0  0  0  0
    0.1373   -1.0596   -0.8345 H   0  0  0  0  0  0
    2.2096   -1.3368    0.4160 H   0  0  0  0  0  0
    2.2570    0.1706   -0.4558 H   0  0  0  0  0  0
    1.5835    1.4044    1.6498 H   0  0  0  0  0  0
    1.7081   -0.0938    2.5821 H   0  0  0  0  0  0
    4.0658   -0.7087    3.4161 H   0  0  0  0  0  0
    3.8778   -1.4610    1.8320 H   0  0  0  0  0  0
    6.3311    0.1528    2.7656 H   0  0  0  0  0  0
    6.2704   -1.5220    2.3207 H   0  0  0  0  0  0
    7.0744   -0.2591    0.6290 H   0  0  0  0  0  0
    3.2792    1.7905    3.6591 H   0  0  0  0  0  0
    4.9322    1.8457    3.0179 H   0  0  0  0  0  0
    3.9268    4.0653    2.5831 H   0  0  0  0  0  0
    2.5550    3.3546    1.7605 H   0  0  0  0  0  0
    4.1646    3.2392    1.0508 H   0  0  0  0  0  0
    3.9468    0.8746    0.9474 H   0  0  0  0  0  0
  1  4  2  0  0  0
  1  2  1  0  0  0
  1 38  1  0  0  0
  2  3  2  0  0  0
  2 27  1  0  0  0
  3  6  1  0  0  0
  3 39  1  0  0  0
  4  5  1  0  0  0
  4 40  1  0  0  0
  5 10  2  0  0  0
  5  6  1  0  0  0
  6  7  2  0  0  0
  7  8  1  0  0  0
  8  9  2  0  0  0
  8 41  1  0  0  0
  9 10  1  0  0  0
 10 11  1  0  0  0
 11 12  1  0  0  0
 11 42  1  0  0  0
 12 13  1  0  0  0
 12 16  2  0  0  0
 13 14  2  0  0  0
 13 43  1  0  0  0
 14 15  1  0  0  0
 14 17  1  0  0  0
 15 16  1  0  0  0
 15 44  1  0  0  0
 17 18  1  0  0  0
 17 45  1  0  0  0
 17 46  1  0  0  0
 18 19  1  0  0  0
 18 37  2  0  0  0
 19 20  1  0  0  0
 19 47  1  0  0  0
 20 21  2  0  0  0
 20 25  1  0  0  0
 21 22  1  0  0  0
 21 48  1  0  0  0
 22 23  2  0  0  0
 22 49  1  0  0  0
 23 24  1  0  0  0
 23 50  1  0  0  0
 24 25  2  0  0  0
 24 26  1  0  0  0
 25 51  1  0  0  0
 27 28  1  0  0  0
 28 29  1  0  0  0
 28 52  1  0  0  0
 28 53  1  0  0  0
 29 30  1  0  0  0
 29 54  1  0  0  0
 29 55  1  0  0  0
 30 31  1  0  0  0
 30 56  1  0  0  0
 30 57  1  0  0  0
 31 32  1  0  0  0
 31 35  1  0  0  0
 31 68  1  0  0  0
 32 33  1  0  0  0
 32 58  1  0  0  0
 32 59  1  0  0  0
 33 34  1  0  0  0
 33 60  1  0  0  0
 33 61  1  0  0  0
 34 62  1  0  0  0
 35 36  1  0  0  0
 35 63  1  0  0  0
 35 64  1  0  0  0
 36 65  1  0  0  0
 36 66  1  0  0  0
 36 67  1  0  0  0
M  CHG  1  31   1
M  END
> <chembl_id>
CHEMBL215152

> <chembl_pref_name>
AZD-1152-HQPA

> <s_m_source_file>
sdf/inactives_sanitized.sdf

> <i_m_source_file_index>
163

> <i_lp_mmshare_version>
49012

> <i_m_ct_stereo_status>
1

> <i_f3d_flags>
0

> <s_epik_input>
W09IXVtDSDJdW0NIMl1OKFtDSDJdW0NIM10pW0NIMl1bQ0gyXVtDSDJdT2MoW2NIXVtjSF0xKVtjSF1jKGMxMiluW2NIXW5jMltOSF1jM1tjSF1jKFtuSF1uMylbQ0gyXUMoPU8pW05IXWM0W2NIXVtjSF1bY0hdYyhGKVtjSF00

> <s_epik_cmdline>
J2VwaWtfcHl0aG9uJywgJy1waHQnLCAnMC41JywgJy1waCcsICc3LjUnLCAnLW50JywgJy1tYScsICcyMDAnLCAnLWltYWUnLCAnPGluZmlsZS5tYWU+JywgJy1vbWFlJywgJzxvdXRmaWxlLm1hZT4n

> <r_lp_tautomer_probability>
0.842584379834229

> <r_epik_Ionization_Penalty>
  0.1461

> <r_epik_Ionization_Penalty_Charging>
  0.1452

> <r_epik_Ionization_Penalty_Neutral>
  0.0010

> <r_epik_State_Penalty>
  0.1345

> <r_epik_Charging_Adjusted_Penalty>
0.279611145854272

> <i_epik_Tot_Q>
1

> <i_epik_Tot_abs_Q>
1

> <s_lp_Force_Field>
OPLS3e

> <r_lp_Energy>
48.108595

> <b_lp_Chiralities_Consistent>
1

> <s_lp_Variant>
sdf/inactives_sanitized.sdf:163-1

$$$$
sdf/inactives_sanitized.sdf:164
                    3D
 Schrodinger Suite 2020-1.
 40 42  0  0  1  0            999 V2000
   -4.3967    4.9718   -2.1835 Br  0  0  0  0  0  0
   -5.2564   -2.5825   -0.7428 F   0  0  0  0  0  0
   -4.7749   -0.5315   -1.1773 F   0  0  0  0  0  0
   -5.0970   -1.1686    0.8807 F   0  0  0  0  0  0
   -0.8560   -4.6562    0.1733 O   0  0  0  0  0  0
    1.6053   -1.0160    2.1655 O   0  0  0  0  0  0
    2.1373   -0.2314    4.2628 O   0  0  0  0  0  0
    0.0038   -0.0031   -0.0639 N   0  0  0  0  0  0
   -0.7651    1.0953   -0.0313 N   0  0  0  0  0  0
   -0.3415   -2.4624   -0.0269 N   0  0  0  0  0  0
   -2.0826   -0.7401   -0.0734 C   0  0  0  0  0  0
   -0.7546   -1.1411   -0.0572 C   0  0  0  0  0  0
   -2.0188    0.6724   -0.0229 C   0  0  0  0  0  0
   -3.0942   -1.8198   -0.1500 C   0  0  0  0  0  0
   -4.5869   -1.5164   -0.2992 C   0  0  0  0  0  0
   -3.1216    1.6692    0.0425 C   0  0  0  0  0  0
   -2.6206   -3.1004   -0.1378 C   0  0  0  0  0  0
   -1.2208   -3.4959   -0.0003 C   0  0  0  0  0  0
    1.4557    0.1234    0.0191 C   0  0  0  0  0  0
   -3.2260    2.6760   -0.9246 C   0  0  0  0  0  0
   -4.0517    1.6233    1.0858 C   0  0  0  0  0  0
   -4.2584    3.6127   -0.8583 C   0  0  0  0  0  0
    1.9135    0.1969    1.4869 C   0  0  0  0  0  0
   -5.0838    2.5594    1.1529 C   0  0  0  0  0  0
   -5.1886    3.5530    0.1798 C   0  0  0  0  0  0
    1.7411   -1.1143    3.5008 C   0  0  0  0  0  0
    1.3346   -2.4878    4.0189 C   0  0  0  0  0  0
    0.6251   -2.7061    0.1325 H   0  0  0  0  0  0
   -3.3245   -3.9166   -0.2120 H   0  0  0  0  0  0
    1.9087   -0.7289   -0.4895 H   0  0  0  0  0  0
    1.7671    1.0182   -0.5225 H   0  0  0  0  0  0
   -2.5094    2.7289   -1.7317 H   0  0  0  0  0  0
   -3.9717    0.8666    1.8527 H   0  0  0  0  0  0
    1.4798    1.0703    1.9777 H   0  0  0  0  0  0
    2.9952    0.3364    1.5146 H   0  0  0  0  0  0
   -5.7996    2.5165    1.9605 H   0  0  0  0  0  0
   -5.9880    4.2775    0.2337 H   0  0  0  0  0  0
    0.3202   -2.7288    3.6999 H   0  0  0  0  0  0
    1.3679   -2.5144    5.1084 H   0  0  0  0  0  0
    2.0104   -3.2521    3.6350 H   0  0  0  0  0  0
  1 22  1  0  0  0
  2 15  1  0  0  0
  3 15  1  0  0  0
  4 15  1  0  0  0
  5 18  2  0  0  0
  6 23  1  0  0  0
  6 26  1  0  0  0
  7 26  2  0  0  0
  8  9  1  0  0  0
  8 12  1  0  0  0
  8 19  1  0  0  0
  9 13  2  0  0  0
 10 12  1  0  0  0
 10 18  1  0  0  0
 10 28  1  0  0  0
 11 12  2  0  0  0
 11 13  1  0  0  0
 11 14  1  0  0  0
 13 16  1  0  0  0
 14 15  1  0  0  0
 14 17  2  0  0  0
 16 20  2  0  0  0
 16 21  1  0  0  0
 17 18  1  0  0  0
 17 29  1  0  0  0
 19 23  1  0  0  0
 19 30  1  0  0  0
 19 31  1  0  0  0
 20 22  1  0  0  0
 20 32  1  0  0  0
 21 24  2  0  0  0
 21 33  1  0  0  0
 22 25  2  0  0  0
 23 34  1  0  0  0
 23 35  1  0  0  0
 24 25  1  0  0  0
 24 36  1  0  0  0
 25 37  1  0  0  0
 26 27  1  0  0  0
 27 38  1  0  0  0
 27 39  1  0  0  0
 27 40  1  0  0  0
M  END
> <chembl_id>
CHEMBL1984847

> <chembl_pref_name>
None

> <s_m_source_file>
sdf/inactives_sanitized.sdf

> <i_m_source_file_index>
164

> <i_lp_mmshare_version>
49012

> <i_m_ct_stereo_status>
1

> <i_f3d_flags>
0

> <s_epik_input>
W2NIXTFbY0hdW2NIXWMoQnIpW2NIXWMxLWMybm4oW0NIMl1bQ0gyXU9DKD1PKVtDSDNdKWMoYzIzKVtuSF1jKD1PKVtjSF1jM0MoRikoRilG

> <s_epik_cmdline>
J2VwaWtfcHl0aG9uJywgJy1waHQnLCAnMC41JywgJy1waCcsICc3LjUnLCAnLW50JywgJy1tYScsICcyMDAnLCAnLWltYWUnLCAnPGluZmlsZS5tYWU+JywgJy1vbWFlJywgJzxvdXRmaWxlLm1hZT4n

> <r_epik_Ionization_Penalty>
  0.2274

> <r_epik_Ionization_Penalty_Charging>
  0.2274

> <r_epik_Ionization_Penalty_Neutral>
  0.0000

> <r_epik_State_Penalty>
  0.2180

> <r_epik_Charging_Adjusted_Penalty>
0.445469416214738

> <i_epik_Tot_Q>
0

> <i_epik_Tot_abs_Q>
0

> <s_epik_Chemistry_Notes>
This compound has an ester and may undergo hydrolysis at high or low pH.

> <s_lp_Force_Field>
OPLS3e

> <r_lp_Energy>
25.987367

> <b_lp_Chiralities_Consistent>
1

> <s_lp_Variant>
sdf/inactives_sanitized.sdf:164-1

$$$$
sdf/inactives_sanitized.sdf:165
                    3D
 Schrodinger Suite 2020-1.
 43 46  0  0  1  0            999 V2000
   -4.8043    0.1271   -1.7135 C   0  0  0  0  0  0
   -4.5925    0.0251    0.1260 S   0  0  1  0  0  0
   -5.0744   -1.3664    0.5416 O   0  0  0  0  0  0
   -2.7712   -0.0415    0.0893 C   0  0  0  0  0  0
   -2.0514    1.1428   -0.0541 C   0  0  0  0  0  0
   -0.6599    1.1030   -0.0759 C   0  0  0  0  0  0
    0.0174   -0.1175    0.0463 C   0  0  0  0  0  0
   -0.7209   -1.2986    0.1974 C   0  0  0  0  0  0
   -2.1123   -1.2627    0.2214 C   0  0  0  0  0  0
    1.5157   -0.1584    0.0155 C   0  0  0  0  0  0
    2.3021    0.8929    0.0229 N   0  0  0  0  0  0
    3.5534    0.4482   -0.0567 C   0  0  0  0  0  0
    4.7004    1.4183   -0.0745 C   0  0  0  0  0  0
    4.5690    2.6918    0.4975 C   0  0  0  0  0  0
    5.6349    3.5875    0.4800 C   0  0  0  0  0  0
    6.8376    3.2184   -0.1162 C   0  0  0  0  0  0
    7.8732    4.0876   -0.1332 F   0  0  0  0  0  0
    6.9802    1.9615   -0.6972 C   0  0  0  0  0  0
    5.9139    1.0665   -0.6783 C   0  0  0  0  0  0
    3.5810   -0.9572   -0.0325 C   0  0  0  0  0  0
    2.2569   -1.3080   -0.0246 N   0  0  0  0  0  0
    4.6703   -1.9732    0.0057 C   0  0  0  0  0  0
    4.6058   -3.1225   -0.7927 C   0  0  0  0  0  0
    5.6453   -4.0520   -0.7207 C   0  0  0  0  0  0
    6.7197   -3.8960    0.0937 N   0  0  0  0  0  0
    6.7687   -2.7817    0.8669 C   0  0  0  0  0  0
    5.7711   -1.8052    0.8549 C   0  0  0  0  0  0
   -4.3228    1.0212   -2.1096 H   0  0  0  0  0  0
   -5.8640    0.1617   -1.9651 H   0  0  0  0  0  0
   -4.3683   -0.7484   -2.1949 H   0  0  0  0  0  0
   -2.5646    2.0886   -0.1502 H   0  0  0  0  0  0
   -0.1126    2.0275   -0.1906 H   0  0  0  0  0  0
   -0.2240   -2.2522    0.3002 H   0  0  0  0  0  0
   -2.6696   -2.1804    0.3394 H   0  0  0  0  0  0
    3.6433    2.9915    0.9675 H   0  0  0  0  0  0
    5.5287    4.5644    0.9281 H   0  0  0  0  0  0
    7.9127    1.6821   -1.1650 H   0  0  0  0  0  0
    6.0366    0.1036   -1.1507 H   0  0  0  0  0  0
    1.8925   -2.2498   -0.0179 H   0  0  0  0  0  0
    3.7726   -3.2918   -1.4594 H   0  0  0  0  0  0
    5.6264   -4.9467   -1.3257 H   0  0  0  0  0  0
    7.6306   -2.6794    1.5097 H   0  0  0  0  0  0
    5.8532   -0.9377    1.4938 H   0  0  0  0  0  0
  1  2  1  0  0  0
  1 28  1  0  0  0
  1 29  1  0  0  0
  1 30  1  0  0  0
  2  3  2  0  0  0
  2  4  1  0  0  0
  4  5  2  0  0  0
  4  9  1  0  0  0
  5  6  1  0  0  0
  5 31  1  0  0  0
  6  7  2  0  0  0
  6 32  1  0  0  0
  7  8  1  0  0  0
  7 10  1  0  0  0
  8  9  2  0  0  0
  8 33  1  0  0  0
  9 34  1  0  0  0
 10 11  2  0  0  0
 10 21  1  0  0  0
 11 12  1  0  0  0
 12 13  1  0  0  0
 12 20  2  0  0  0
 13 14  2  0  0  0
 13 19  1  0  0  0
 14 15  1  0  0  0
 14 35  1  0  0  0
 15 16  2  0  0  0
 15 36  1  0  0  0
 16 17  1  0  0  0
 16 18  1  0  0  0
 18 19  2  0  0  0
 18 37  1  0  0  0
 19 38  1  0  0  0
 20 21  1  0  0  0
 20 22  1  0  0  0
 21 39  1  0  0  0
 22 23  1  0  0  0
 22 27  2  0  0  0
 23 24  2  0  0  0
 23 40  1  0  0  0
 24 25  1  0  0  0
 24 41  1  0  0  0
 25 26  2  0  0  0
 26 27  1  0  0  0
 26 42  1  0  0  0
 27 43  1  0  0  0
M  END
> <chembl_id>
CHEMBL10

> <chembl_pref_name>
SB-203580

> <s_m_source_file>
sdf/inactives_sanitized.sdf

> <i_m_source_file_index>
165

> <i_lp_mmshare_version>
49012

> <i_m_ct_stereo_status>
1

> <i_f3d_flags>
0

> <s_epik_input>
W0NIM11bUytdKFtPLV0pYzFbY0hdW2NIXWMoW2NIXVtjSF0xKS1jMm5jKC1jM1tjSF1bY0hdYyhGKVtjSF1bY0hdMyljKFtuSF0yKS1jNFtjSF1bY0hdbltjSF1bY0hdNA==

> <s_epik_cmdline>
J2VwaWtfcHl0aG9uJywgJy1waHQnLCAnMC41JywgJy1waCcsICc3LjUnLCAnLW50JywgJy1tYScsICcyMDAnLCAnLWltYWUnLCAnPGluZmlsZS5tYWU+JywgJy1vbWFlJywgJzxvdXRmaWxlLm1hZT4n

> <r_lp_tautomer_probability>
1

> <r_epik_Ionization_Penalty>
  0.0069

> <r_epik_Ionization_Penalty_Charging>
  0.0054

> <r_epik_Ionization_Penalty_Neutral>
  0.0015

> <r_epik_State_Penalty>
 -0.0000

> <r_epik_Charging_Adjusted_Penalty>
0.00536893906726094

> <i_epik_Tot_Q>
0

> <i_epik_Tot_abs_Q>
2

> <s_lp_Force_Field>
OPLS3e

> <r_lp_Energy>
35.642986

> <b_lp_Chiralities_Consistent>
1

> <s_lp_Variant>
sdf/inactives_sanitized.sdf:165-1

$$$$
sdf/inactives_sanitized.sdf:166
                    3D
 Schrodinger Suite 2020-1.
 45 47  0  0  1  0            999 V2000
   -0.4330    1.6758   -0.9827 O   0  0  0  0  0  0
    1.8623   -1.3235   -4.7861 O   0  0  0  0  0  0
    0.0144   -0.2721    0.0880 N   0  0  0  0  0  0
   -9.3107   -0.8075    0.4288 N   0  0  0  0  0  0
   -2.3088    0.3706   -0.2736 C   0  0  0  0  0  0
   -5.0772   -0.0990    0.0001 C   0  0  0  0  0  0
   -0.8275    0.6480   -0.4272 C   0  0  0  0  0  0
    2.1367   -0.0564   -1.2844 C   0  0  0  0  0  0
    1.4818   -0.1978    0.0963 C   0  0  2  0  0  0
   -6.5399   -0.3450    0.1477 C   0  0  0  0  0  0
   -3.2333    1.4020   -0.4823 C   0  0  0  0  0  0
   -2.7886   -0.9031    0.0678 C   0  0  0  0  0  0
   -4.5988    1.1692   -0.3456 C   0  0  0  0  0  0
   -4.1553   -1.1312    0.2036 C   0  0  0  0  0  0
    1.6693   -0.7863   -2.3859 C   0  0  0  0  0  0
    2.2604   -0.6407   -3.6530 C   0  0  0  0  0  0
    3.2035    0.8308   -1.4583 C   0  0  0  0  0  0
   -7.0395   -1.1434    1.1884 C   0  0  0  0  0  0
   -7.4631    0.2154   -0.7488 C   0  0  0  0  0  0
    3.3255    0.2506   -3.7980 C   0  0  0  0  0  0
    3.7964    0.9829   -2.7097 C   0  0  0  0  0  0
    2.0687   -1.4016    0.8526 C   0  0  0  0  0  0
   -8.4168   -1.3478    1.2940 C   0  0  0  0  0  0
   -8.8252   -0.0373   -0.5764 C   0  0  0  0  0  0
    0.7835   -2.2474   -4.6950 C   0  0  0  0  0  0
   -0.3872   -1.0003    0.6600 H   0  0  0  0  0  0
    1.7296    0.6919    0.6802 H   0  0  0  0  0  0
   -2.9044    2.3971   -0.7477 H   0  0  0  0  0  0
   -2.1149   -1.7323    0.2285 H   0  0  0  0  0  0
   -5.2858    1.9879   -0.5039 H   0  0  0  0  0  0
   -4.4959   -2.1231    0.4627 H   0  0  0  0  0  0
    0.8437   -1.4663   -2.2407 H   0  0  0  0  0  0
    3.5756    1.4073   -0.6237 H   0  0  0  0  0  0
   -6.3747   -1.5947    1.9107 H   0  0  0  0  0  0
   -7.1336    0.8335   -1.5715 H   0  0  0  0  0  0
    3.7919    0.3777   -4.7640 H   0  0  0  0  0  0
    4.6199    1.6700   -2.8369 H   0  0  0  0  0  0
    3.1497   -1.3089    0.9647 H   0  0  0  0  0  0
    1.8686   -2.3383    0.3305 H   0  0  0  0  0  0
    1.6460   -1.4862    1.8544 H   0  0  0  0  0  0
   -8.8238   -1.9557    2.0886 H   0  0  0  0  0  0
   -9.5527    0.3818   -1.2557 H   0  0  0  0  0  0
    0.6088   -2.6938   -5.6738 H   0  0  0  0  0  0
   -0.1401   -1.7551   -4.3866 H   0  0  0  0  0  0
    1.0081   -3.0570   -3.9991 H   0  0  0  0  0  0
  1  7  2  0  0  0
  2 16  1  0  0  0
  2 25  1  0  0  0
  3  7  1  0  0  0
  3  9  1  0  0  0
  3 26  1  0  0  0
  4 23  2  0  0  0
  4 24  1  0  0  0
  5  7  1  0  0  0
  5 11  2  0  0  0
  5 12  1  0  0  0
  6 10  1  0  0  0
  6 13  2  0  0  0
  6 14  1  0  0  0
  8  9  1  0  0  0
  8 15  2  0  0  0
  8 17  1  0  0  0
  9 22  1  0  0  0
  9 27  1  0  0  0
 10 18  2  0  0  0
 10 19  1  0  0  0
 11 13  1  0  0  0
 11 28  1  0  0  0
 12 14  2  0  0  0
 12 29  1  0  0  0
 13 30  1  0  0  0
 14 31  1  0  0  0
 15 16  1  0  0  0
 15 32  1  0  0  0
 16 20  2  0  0  0
 17 21  2  0  0  0
 17 33  1  0  0  0
 18 23  1  0  0  0
 18 34  1  0  0  0
 19 24  2  0  0  0
 19 35  1  0  0  0
 20 21  1  0  0  0
 20 36  1  0  0  0
 21 37  1  0  0  0
 22 38  1  0  0  0
 22 39  1  0  0  0
 22 40  1  0  0  0
 23 41  1  0  0  0
 24 42  1  0  0  0
 25 43  1  0  0  0
 25 44  1  0  0  0
 25 45  1  0  0  0
M  END
> <chembl_id>
CHEMBL1975121

> <chembl_pref_name>
None

> <s_m_source_file>
sdf/inactives_sanitized.sdf

> <i_m_source_file_index>
166

> <i_lp_mmshare_version>
49012

> <i_m_ct_stereo_status>
1

> <i_f3d_flags>
0

> <s_epik_input>
W2NIXTFbY0hdW2NIXWMoT1tDSDNdKVtjSF1jMVtDQEhdKFtDSDNdKVtOSF1DKD1PKWMyW2NIXVtjSF1jKFtjSF1bY0hdMiktYzNbY0hdW2NIXW5bY0hdW2NIXTM=

> <s_epik_cmdline>
J2VwaWtfcHl0aG9uJywgJy1waHQnLCAnMC41JywgJy1waCcsICc3LjUnLCAnLW50JywgJy1tYScsICcyMDAnLCAnLWltYWUnLCAnPGluZmlsZS5tYWU+JywgJy1vbWFlJywgJzxvdXRmaWxlLm1hZT4n

> <r_lp_tautomer_probability>
1

> <r_epik_Ionization_Penalty>
  0.0017

> <r_epik_Ionization_Penalty_Charging>
  0.0000

> <r_epik_Ionization_Penalty_Neutral>
  0.0017

> <r_epik_State_Penalty>
 -0.0000

> <r_epik_Charging_Adjusted_Penalty>
0

> <i_epik_Tot_Q>
0

> <i_epik_Tot_abs_Q>
0

> <s_lp_Force_Field>
OPLS3e

> <r_lp_Energy>
41.205213

> <b_lp_Chiralities_Consistent>
1

> <s_lp_Variant>
sdf/inactives_sanitized.sdf:166-1

$$$$
sdf/inactives_sanitized.sdf:167
                    3D
 Schrodinger Suite 2020-1.
 57 61  0  0  1  0            999 V2000
   -2.0412    1.1182   -0.5843 F   0  0  0  0  0  0
   -0.3892    2.4314   -0.9973 F   0  0  0  0  0  0
   -0.7520    1.6922    1.0394 F   0  0  0  0  0  0
    5.1862   -1.1226    2.3195 O   0  0  0  0  0  0
   -0.0065    0.2229   -0.5460 O   0  0  0  0  0  0
   11.5726    1.2227    3.7263 N   0  0  0  0  0  0
    7.8245    1.4856    4.0389 N   0  3  0  0  0  0
    7.3873   -0.8541    1.8280 N   0  0  0  0  0  0
    9.0595    0.8780    3.3190 C   0  0  0  0  0  0
   10.2686    1.6229    3.8959 C   0  0  0  0  0  0
   10.2551    2.7888    4.6538 C   0  0  0  0  0  0
   11.6231    3.1033    4.9587 C   0  0  0  0  0  0
   12.4335    2.0960    4.3541 C   0  0  0  0  0  0
    8.8978    1.0575    1.7724 C   0  0  0  0  0  0
    9.0470   -0.6373    3.6713 C   0  0  0  0  0  0
    8.9692    3.4888    5.0643 C   0  0  0  0  0  0
    7.8113    3.0242    4.1535 C   0  0  0  0  0  0
   12.2536    4.1290    5.6818 C   0  0  0  0  0  0
    8.4353   -0.2114    1.0174 C   0  0  0  0  0  0
    7.8232   -1.4304    3.1240 C   0  0  0  0  0  0
   13.8294    2.0989    4.4519 C   0  0  0  0  0  0
    6.0615   -0.7107    1.5528 C   0  0  0  0  0  0
   13.6440    4.1320    5.7813 C   0  0  0  0  0  0
   14.4111    3.1385    5.1782 C   0  0  0  0  0  0
    5.6446   -0.1134    0.1868 C   0  0  0  0  0  0
    4.1342    0.0081   -0.0087 C   0  0  0  0  0  0
    1.3611    0.2142   -0.3393 C   0  0  0  0  0  0
    3.4712    1.1775    0.3690 C   0  0  0  0  0  0
    3.4100   -1.0612   -0.5394 C   0  0  0  0  0  0
    2.0929    1.2829    0.2030 C   0  0  0  0  0  0
    2.0322   -0.9541   -0.7031 C   0  0  0  0  0  0
   -0.7782    1.3893   -0.2600 C   0  0  0  0  0  0
   11.8181    0.3949    3.2026 H   0  0  0  0  0  0
    6.9900    1.1650    3.5681 H   0  0  0  0  0  0
    8.1825    1.8487    1.5467 H   0  0  0  0  0  0
    9.8295    1.4028    1.3221 H   0  0  0  0  0  0
    9.9485   -1.0906    3.2554 H   0  0  0  0  0  0
    9.1357   -0.7967    4.7473 H   0  0  0  0  0  0
    8.7474    3.2483    6.1047 H   0  0  0  0  0  0
    9.0707    4.5731    5.0084 H   0  0  0  0  0  0
    7.8940    3.4096    3.1372 H   0  0  0  0  0  0
    6.8338    3.2887    4.5578 H   0  0  0  0  0  0
   11.6745    4.9082    6.1553 H   0  0  0  0  0  0
    9.2532   -0.9315    0.9630 H   0  0  0  0  0  0
    8.1688   -0.0629   -0.0288 H   0  0  0  0  0  0
    7.0441   -1.2873    3.8748 H   0  0  0  0  0  0
    8.0405   -2.4943    3.0236 H   0  0  0  0  0  0
   14.4380    1.3345    3.9914 H   0  0  0  0  0  0
   14.1361    4.9181    6.3354 H   0  0  0  0  0  0
   15.4863    3.1738    5.2765 H   0  0  0  0  0  0
    6.0897    0.8768    0.0769 H   0  0  0  0  0  0
    6.0521   -0.7385   -0.6096 H   0  0  0  0  0  0
    4.0214    2.0059    0.7910 H   0  0  0  0  0  0
    3.9120   -1.9750   -0.8228 H   0  0  0  0  0  0
    1.6131    2.2018    0.5025 H   0  0  0  0  0  0
    1.4805   -1.7860   -1.1163 H   0  0  0  0  0  0
    7.7771    1.0964    4.9697 H   0  0  0  0  0  0
  1 32  1  0  0  0
  2 32  1  0  0  0
  3 32  1  0  0  0
  4 22  2  0  0  0
  5 27  1  0  0  0
  5 32  1  0  0  0
  6 10  1  0  0  0
  6 13  1  0  0  0
  6 33  1  0  0  0
  7  9  1  0  0  0
  7 17  1  0  0  0
  7 34  1  0  0  0
  7 57  1  0  0  0
  8 19  1  0  0  0
  8 20  1  0  0  0
  8 22  1  0  0  0
  9 10  1  0  0  0
  9 14  1  0  0  0
  9 15  1  0  0  0
 10 11  2  0  0  0
 11 12  1  0  0  0
 11 16  1  0  0  0
 12 13  2  0  0  0
 12 18  1  0  0  0
 13 21  1  0  0  0
 14 19  1  0  0  0
 14 35  1  0  0  0
 14 36  1  0  0  0
 15 20  1  0  0  0
 15 37  1  0  0  0
 15 38  1  0  0  0
 16 17  1  0  0  0
 16 39  1  0  0  0
 16 40  1  0  0  0
 17 41  1  0  0  0
 17 42  1  0  0  0
 18 23  2  0  0  0
 18 43  1  0  0  0
 19 44  1  0  0  0
 19 45  1  0  0  0
 20 46  1  0  0  0
 20 47  1  0  0  0
 21 24  2  0  0  0
 21 48  1  0  0  0
 22 25  1  0  0  0
 23 24  1  0  0  0
 23 49  1  0  0  0
 24 50  1  0  0  0
 25 26  1  0  0  0
 25 51  1  0  0  0
 25 52  1  0  0  0
 26 28  2  0  0  0
 26 29  1  0  0  0
 27 30  2  0  0  0
 27 31  1  0  0  0
 28 30  1  0  0  0
 28 53  1  0  0  0
 29 31  2  0  0  0
 29 54  1  0  0  0
 30 55  1  0  0  0
 31 56  1  0  0  0
M  CHG  1   7   1
M  END
> <chembl_id>
CHEMBL1996576

> <chembl_pref_name>
None

> <s_m_source_file>
sdf/inactives_sanitized.sdf

> <i_m_source_file_index>
167

> <i_lp_mmshare_version>
49012

> <i_m_ct_stereo_status>
1

> <i_f3d_flags>
0

> <s_epik_input>
RkMoRikoRilPYyhbY0hdW2NIXTEpW2NIXVtjSF1jMVtDSDJdQyg9TylOKFtDSDJdW0NIMl0yKVtDSDJdW0NIMl1DMjNjNGMoW0NIMl1bQ0gyXVtOSF0zKWM1YyhbbkhdNClbY0hdW2NIXVtjSF1bY0hdNQ==

> <s_epik_cmdline>
J2VwaWtfcHl0aG9uJywgJy1waHQnLCAnMC41JywgJy1waCcsICc3LjUnLCAnLW50JywgJy1tYScsICcyMDAnLCAnLWltYWUnLCAnPGluZmlsZS5tYWU+JywgJy1vbWFlJywgJzxvdXRmaWxlLm1hZT4n

> <r_lp_tautomer_probability>
1

> <r_epik_Ionization_Penalty>
  0.1126

> <r_epik_Ionization_Penalty_Charging>
  0.1126

> <r_epik_Ionization_Penalty_Neutral>
  0.0000

> <r_epik_State_Penalty>
  0.1023

> <r_epik_Charging_Adjusted_Penalty>
0.214878632617122

> <i_epik_Tot_Q>
1

> <i_epik_Tot_abs_Q>
1

> <s_lp_Force_Field>
OPLS3e

> <r_lp_Energy>
44.193847

> <b_lp_Chiralities_Consistent>
1

> <s_lp_Variant>
sdf/inactives_sanitized.sdf:167-1

$$$$
sdf/inactives_sanitized.sdf:168
                    3D
 Schrodinger Suite 2020-1.
 42 45  0  0  1  0            999 V2000
   -5.0468    0.7488   -0.7499 N   0  0  0  0  0  0
   -5.0244    2.0964   -1.1181 C   0  0  0  0  0  0
   -3.8627    2.8976   -1.1848 C   0  0  0  0  0  0
   -2.5995    2.3918   -0.8643 N   0  0  0  0  0  0
   -1.9999    1.1595   -0.6005 C   0  0  0  0  0  0
   -2.6902   -0.0743   -0.5864 C   0  0  0  0  0  0
   -4.1898   -0.2873   -0.7604 C   0  0  0  0  0  0
   -4.0021    4.2465   -1.5701 C   0  0  0  0  0  0
   -5.2426    4.7837   -1.9044 C   0  0  0  0  0  0
   -6.3746    3.9849   -1.8611 C   0  0  0  0  0  0
   -6.2583    2.6562   -1.4736 C   0  0  0  0  0  0
   -1.9516   -1.2548   -0.3696 C   0  0  0  0  0  0
   -0.5793   -1.2261   -0.1536 C   0  0  0  0  0  0
    0.1127   -0.0174   -0.1470 C   0  0  0  0  0  0
   -0.6173    1.1522   -0.3722 C   0  0  0  0  0  0
   -4.6486   -1.4273   -0.8566 O   0  0  0  0  0  0
    1.5847    0.0239    0.0868 C   0  0  0  0  0  0
    2.4089    0.8742   -0.6635 C   0  0  0  0  0  0
    3.7990    0.9265   -0.4551 C   0  0  0  0  0  0
    4.3598    0.1022    0.5294 C   0  0  0  0  0  0
    3.5528   -0.7494    1.2822 C   0  0  0  0  0  0
    2.1783   -0.7872    1.0615 C   0  0  0  0  0  0
    4.6558    1.7476   -1.1679 O   0  0  0  0  0  0
    4.1306    2.5952   -2.1840 C   0  0  0  0  0  0
    5.7107    0.1178    0.7684 O   0  0  0  0  0  0
   -2.9091    5.0772   -1.6355 O   0  0  0  0  0  0
   -5.9928    0.3967   -0.7483 H   0  0  0  0  0  0
   -1.9100    3.1296   -0.8806 H   0  0  0  0  0  0
   -5.3313    5.8190   -2.2014 H   0  0  0  0  0  0
   -7.3395    4.3930   -2.1240 H   0  0  0  0  0  0
   -7.1538    2.0513   -1.4429 H   0  0  0  0  0  0
   -2.4223   -2.2278   -0.3503 H   0  0  0  0  0  0
   -0.0557   -2.1571    0.0087 H   0  0  0  0  0  0
   -0.0899    2.0964   -0.3741 H   0  0  0  0  0  0
    1.9515    1.4922   -1.4211 H   0  0  0  0  0  0
    3.9882   -1.3833    2.0412 H   0  0  0  0  0  0
    1.5720   -1.4510    1.6608 H   0  0  0  0  0  0
    4.9430    3.1702   -2.6281 H   0  0  0  0  0  0
    3.4075    3.3058   -1.7806 H   0  0  0  0  0  0
    3.6606    2.0181   -2.9818 H   0  0  0  0  0  0
    5.9757   -0.4882    1.4639 H   0  0  0  0  0  0
   -3.1325    5.9683   -1.9137 H   0  0  0  0  0  0
  1  2  1  0  0  0
  1  7  1  0  0  0
  1 27  1  0  0  0
  2  3  2  0  0  0
  2 11  1  0  0  0
  3  4  1  0  0  0
  3  8  1  0  0  0
  4  5  1  0  0  0
  4 28  1  0  0  0
  5  6  2  0  0  0
  5 15  1  0  0  0
  6  7  1  0  0  0
  6 12  1  0  0  0
  7 16  2  0  0  0
  8  9  2  0  0  0
  8 26  1  0  0  0
  9 10  1  0  0  0
  9 29  1  0  0  0
 10 11  2  0  0  0
 10 30  1  0  0  0
 11 31  1  0  0  0
 12 13  2  0  0  0
 12 32  1  0  0  0
 13 14  1  0  0  0
 13 33  1  0  0  0
 14 15  2  0  0  0
 14 17  1  0  0  0
 15 34  1  0  0  0
 17 18  2  0  0  0
 17 22  1  0  0  0
 18 19  1  0  0  0
 18 35  1  0  0  0
 19 20  2  0  0  0
 19 23  1  0  0  0
 20 21  1  0  0  0
 20 25  1  0  0  0
 21 22  2  0  0  0
 21 36  1  0  0  0
 22 37  1  0  0  0
 23 24  1  0  0  0
 24 38  1  0  0  0
 24 39  1  0  0  0
 24 40  1  0  0  0
 25 41  1  0  0  0
 26 42  1  0  0  0
M  END
> <chembl_id>
CHEMBL550418

> <chembl_pref_name>
None

> <s_m_source_file>
sdf/inactives_sanitized.sdf

> <i_m_source_file_index>
168

> <i_lp_mmshare_version>
49012

> <i_m_ct_stereo_status>
1

> <i_f3d_flags>
0

> <s_epik_input>
W2NIXTFbY0hdW2NIXWMoW09IXSljKGMxMilbTkhdYzNjKEMoPU8pW05IXTIpW2NIXVtjSF1jKFtjSF0zKS1jNFtjSF1jKE9bQ0gzXSljKFtPSF0pW2NIXVtjSF00

> <s_epik_cmdline>
J2VwaWtfcHl0aG9uJywgJy1waHQnLCAnMC41JywgJy1waCcsICc3LjUnLCAnLW50JywgJy1tYScsICcyMDAnLCAnLWltYWUnLCAnPGluZmlsZS5tYWU+JywgJy1vbWFlJywgJzxvdXRmaWxlLm1hZT4n

> <r_lp_tautomer_probability>
1

> <r_epik_Ionization_Penalty>
  0.0038

> <r_epik_Ionization_Penalty_Charging>
  0.0000

> <r_epik_Ionization_Penalty_Neutral>
  0.0038

> <r_epik_State_Penalty>
 -0.0000

> <r_epik_Charging_Adjusted_Penalty>
0

> <i_epik_Tot_Q>
0

> <i_epik_Tot_abs_Q>
0

> <s_lp_Force_Field>
OPLS3e

> <r_lp_Energy>
64.231652

> <b_lp_Chiralities_Consistent>
1

> <s_lp_Variant>
sdf/inactives_sanitized.sdf:168-1

$$$$
sdf/inactives_sanitized.sdf:169
                    3D
 Schrodinger Suite 2020-1.
 43 45  0  0  1  0            999 V2000
    0.2419   -2.4827    0.3481 N   0  0  0  0  0  0
   -0.1628   -3.7673    0.4904 C   0  0  0  0  0  0
   -1.4210   -4.2195    0.7061 N   0  0  0  0  0  0
   -0.6859   -1.4813    0.4313 C   0  0  0  0  0  0
   -2.0510   -1.8377    0.6412 C   0  0  0  0  0  0
   -2.3217   -3.2364    0.7701 C   0  0  0  0  0  0
   -3.6750   -3.3936    0.9697 N   0  0  0  0  0  0
   -4.2814   -2.1635    0.9654 C   0  0  0  0  0  0
   -3.3305   -1.1823    0.7633 C   0  0  0  0  0  0
   -0.2331   -0.1343    0.2770 N   0  0  0  0  0  0
    1.2085    0.1376    0.0388 C   0  0  2  0  0  0
   -1.0756    0.9238    0.8384 C   0  0  0  0  0  0
    2.0173    0.0617    1.3693 C   0  0  0  0  0  0
    2.0814    1.3930    1.9921 N   0  0  0  0  0  0
    2.7639    2.4075    1.1802 C   0  0  0  0  0  0
    1.8819    2.6883   -0.0533 C   0  0  0  0  0  0
    1.4825    1.4122   -0.8405 C   0  0  2  0  0  0
    0.4726    1.6966   -1.9718 C   0  0  0  0  0  0
    1.3565    1.6984    3.0995 C   0  0  0  0  0  0
    0.6740    0.8639    3.6980 O   0  0  0  0  0  0
    1.4720    3.1133    3.6877 C   0  0  0  0  0  0
    0.6787    3.3928    4.8967 C   0  0  0  0  0  0
    0.0557    3.6140    5.8466 N   0  0  0  0  0  0
    0.6089   -4.5200    0.4230 H   0  0  0  0  0  0
   -4.1845   -4.2556    1.0997 H   0  0  0  0  0  0
   -5.3502   -2.0922    1.1060 H   0  0  0  0  0  0
   -3.5595   -0.1291    0.7165 H   0  0  0  0  0  0
    1.5738   -0.6821   -0.5809 H   0  0  0  0  0  0
   -1.9197    1.1248    0.1805 H   0  0  0  0  0  0
   -0.5404    1.8590    0.9735 H   0  0  0  0  0  0
   -1.4579    0.6400    1.8198 H   0  0  0  0  0  0
    1.6737   -0.7100    2.0603 H   0  0  0  0  0  0
    3.0408   -0.2400    1.1438 H   0  0  0  0  0  0
    3.0733    3.2890    1.7416 H   0  0  0  0  0  0
    3.7107    1.9659    0.8660 H   0  0  0  0  0  0
    0.9878    3.2060    0.2937 H   0  0  0  0  0  0
    2.3686    3.4033   -0.7176 H   0  0  0  0  0  0
    2.4056    1.1364   -1.3545 H   0  0  0  0  0  0
   -0.4737    2.0772   -1.5888 H   0  0  0  0  0  0
    0.2615    0.7943   -2.5468 H   0  0  0  0  0  0
    0.8625    2.4416   -2.6661 H   0  0  0  0  0  0
    2.5132    3.3167    3.9403 H   0  0  0  0  0  0
    1.1641    3.8441    2.9394 H   0  0  0  0  0  0
  1  2  2  0  0  0
  1  4  1  0  0  0
  2  3  1  0  0  0
  2 24  1  0  0  0
  3  6  2  0  0  0
  4  5  2  0  0  0
  4 10  1  0  0  0
  5  9  1  0  0  0
  5  6  1  0  0  0
  6  7  1  0  0  0
  7  8  1  0  0  0
  7 25  1  0  0  0
  8  9  2  0  0  0
  8 26  1  0  0  0
  9 27  1  0  0  0
 10 11  1  0  0  0
 10 12  1  0  0  0
 11 13  1  0  0  0
 11 17  1  0  0  0
 11 28  1  0  0  0
 12 29  1  0  0  0
 12 30  1  0  0  0
 12 31  1  0  0  0
 13 14  1  0  0  0
 13 32  1  0  0  0
 13 33  1  0  0  0
 14 15  1  0  0  0
 14 19  1  0  0  0
 15 16  1  0  0  0
 15 34  1  0  0  0
 15 35  1  0  0  0
 16 17  1  0  0  0
 16 36  1  0  0  0
 16 37  1  0  0  0
 17 18  1  0  0  0
 17 38  1  0  0  0
 18 39  1  0  0  0
 18 40  1  0  0  0
 18 41  1  0  0  0
 19 20  2  0  0  0
 19 21  1  0  0  0
 21 22  1  0  0  0
 21 42  1  0  0  0
 21 43  1  0  0  0
 22 23  3  0  0  0
M  END
> <chembl_id>
CHEMBL234085

> <chembl_pref_name>
None

> <s_m_source_file>
sdf/inactives_sanitized.sdf

> <i_m_source_file_index>
169

> <i_lp_mmshare_version>
49012

> <i_m_ct_stereo_status>
1

> <i_f3d_flags>
0

> <s_epik_input>
W2NIXTFbY0hdW25IXWMoYzEyKW5bY0hdbmMyTihbQ0gzXSlbQ0BASF0zW0NIMl1OKEMoPU8pW0NIMl1DI04pW0NIMl1bQ0gyXVtDQEBIXTNbQ0gzXQ==

> <s_epik_cmdline>
J2VwaWtfcHl0aG9uJywgJy1waHQnLCAnMC41JywgJy1waCcsICc3LjUnLCAnLW50JywgJy1tYScsICcyMDAnLCAnLWltYWUnLCAnPGluZmlsZS5tYWU+JywgJy1vbWFlJywgJzxvdXRmaWxlLm1hZT4n

> <r_lp_tautomer_probability>
1

> <r_epik_Ionization_Penalty>
  0.0050

> <r_epik_Ionization_Penalty_Charging>
  0.0000

> <r_epik_Ionization_Penalty_Neutral>
  0.0050

> <r_epik_State_Penalty>
 -0.0000

> <r_epik_Charging_Adjusted_Penalty>
0

> <i_epik_Tot_Q>
0

> <i_epik_Tot_abs_Q>
0

> <s_lp_Force_Field>
OPLS3e

> <r_lp_Energy>
40.392954

> <b_lp_Chiralities_Consistent>
1

> <s_lp_Variant>
sdf/inactives_sanitized.sdf:169-1

$$$$
sdf/inactives_sanitized.sdf:170
                    3D
 Schrodinger Suite 2020-1.
 42 44  0  0  1  0            999 V2000
   -1.1084    5.2355   -1.0903 S   0  0  0  0  0  0
    3.4270   -3.2109   -0.2359 O   0  0  0  0  0  0
   -0.3804    5.1647   -2.3623 O   0  0  0  0  0  0
   -2.4496    5.8288   -1.0374 O   0  0  0  0  0  0
    2.6139   -0.7261   -1.2258 N   0  0  0  0  0  0
    0.6760    0.3527   -0.5045 N   0  0  0  0  0  0
    2.6836    1.6335   -0.7516 N   0  0  0  0  0  0
    3.9407   -0.7053   -1.5431 C   0  0  0  0  0  0
    4.5612   -1.9983   -1.9696 C   0  0  0  0  0  0
   -1.2251    3.5686   -0.4458 C   0  0  0  0  0  0
    2.0341    0.4417   -0.8470 C   0  0  0  0  0  0
   -0.2948    1.3322   -0.2329 C   0  0  0  0  0  0
    4.2822   -3.2254   -1.3255 C   0  0  0  0  0  0
   -0.2238    2.6378   -0.7393 C   0  0  0  0  0  0
    4.6763    0.4873   -1.4831 C   0  0  0  0  0  0
    5.4599   -1.9913   -3.0473 C   0  0  0  0  0  0
   -2.3076    3.1949    0.3546 C   0  0  0  0  0  0
   -1.3936    0.9669    0.5507 C   0  0  0  0  0  0
    4.0014    1.6392   -1.0766 C   0  0  0  0  0  0
    4.8967   -4.4021   -1.7929 C   0  0  0  0  0  0
   -2.3927    1.8939    0.8477 C   0  0  0  0  0  0
    6.0610   -3.1632   -3.4972 C   0  0  0  0  0  0
    5.7769   -4.3705   -2.8707 C   0  0  0  0  0  0
   -0.0169    6.1069    0.1765 C   0  0  0  0  0  0
    3.1089   -4.4254    0.4350 C   0  0  0  0  0  0
    0.3204   -0.5924   -0.5038 H   0  0  0  0  0  0
    0.5972    2.9381   -1.3721 H   0  0  0  0  0  0
    5.7275    0.5212   -1.7296 H   0  0  0  0  0  0
    5.6892   -1.0673   -3.5584 H   0  0  0  0  0  0
   -3.0857    3.9049    0.5933 H   0  0  0  0  0  0
   -1.4759   -0.0373    0.9417 H   0  0  0  0  0  0
    4.5156    2.5862   -1.0035 H   0  0  0  0  0  0
    4.7096   -5.3571   -1.3264 H   0  0  0  0  0  0
   -3.2328    1.6032    1.4609 H   0  0  0  0  0  0
    6.7440   -3.1342   -4.3335 H   0  0  0  0  0  0
    6.2412   -5.2823   -3.2169 H   0  0  0  0  0  0
    0.1320    7.1391   -0.1390 H   0  0  0  0  0  0
    0.9421    5.5921    0.2308 H   0  0  0  0  0  0
   -0.5103    6.0817    1.1477 H   0  0  0  0  0  0
    2.4146   -4.2141    1.2482 H   0  0  0  0  0  0
    3.9966   -4.8860    0.8710 H   0  0  0  0  0  0
    2.6246   -5.1377   -0.2345 H   0  0  0  0  0  0
  1  3  2  0  0  0
  1  4  2  0  0  0
  1 10  1  0  0  0
  1 24  1  0  0  0
  2 13  1  0  0  0
  2 25  1  0  0  0
  5  8  2  0  0  0
  5 11  1  0  0  0
  6 11  1  0  0  0
  6 12  1  0  0  0
  6 26  1  0  0  0
  7 11  2  0  0  0
  7 19  1  0  0  0
  8  9  1  0  0  0
  8 15  1  0  0  0
  9 13  2  0  0  0
  9 16  1  0  0  0
 10 14  2  0  0  0
 10 17  1  0  0  0
 12 14  1  0  0  0
 12 18  2  0  0  0
 13 20  1  0  0  0
 14 27  1  0  0  0
 15 19  2  0  0  0
 15 28  1  0  0  0
 16 22  2  0  0  0
 16 29  1  0  0  0
 17 21  2  0  0  0
 17 30  1  0  0  0
 18 21  1  0  0  0
 18 31  1  0  0  0
 19 32  1  0  0  0
 20 23  2  0  0  0
 20 33  1  0  0  0
 21 34  1  0  0  0
 22 23  1  0  0  0
 22 35  1  0  0  0
 23 36  1  0  0  0
 24 37  1  0  0  0
 24 38  1  0  0  0
 24 39  1  0  0  0
 25 40  1  0  0  0
 25 41  1  0  0  0
 25 42  1  0  0  0
M  END
> <chembl_id>
CHEMBL1975903

> <chembl_pref_name>
None

> <s_m_source_file>
sdf/inactives_sanitized.sdf

> <i_m_source_file_index>
170

> <i_lp_mmshare_version>
49012

> <i_m_ct_stereo_status>
1

> <i_f3d_flags>
0

> <s_epik_input>
Tz1TKD1PKShbQ0gzXSljMVtjSF1jKFtjSF1bY0hdW2NIXTEpW05IXWMobltjSF1bY0hdMiluYzItYzNjKE9bQ0gzXSlbY0hdW2NIXVtjSF1bY0hdMw==

> <s_epik_cmdline>
J2VwaWtfcHl0aG9uJywgJy1waHQnLCAnMC41JywgJy1waCcsICc3LjUnLCAnLW50JywgJy1tYScsICcyMDAnLCAnLWltYWUnLCAnPGluZmlsZS5tYWU+JywgJy1vbWFlJywgJzxvdXRmaWxlLm1hZT4n

> <r_lp_tautomer_probability>
1

> <r_epik_Ionization_Penalty>
  0.0000

> <r_epik_Ionization_Penalty_Charging>
  0.0000

> <r_epik_Ionization_Penalty_Neutral>
  0.0000

> <r_epik_State_Penalty>
 -0.0000

> <r_epik_Charging_Adjusted_Penalty>
0

> <i_epik_Tot_Q>
0

> <i_epik_Tot_abs_Q>
0

> <s_lp_Force_Field>
OPLS3e

> <r_lp_Energy>
38.891672

> <b_lp_Chiralities_Consistent>
1

> <s_lp_Variant>
sdf/inactives_sanitized.sdf:170-1

$$$$
sdf/inactives_sanitized.sdf:171
                    3D
 Schrodinger Suite 2020-1.
 24 26  0  0  1  0            999 V2000
    2.3096   -0.8335   -1.2549 S   0  0  0  0  0  0
    0.0583    0.0232    0.0045 N   0  0  0  0  0  0
   -2.0171    0.9241   -0.0195 N   0  0  0  0  0  0
    2.1863    0.5592    0.9152 N   0  0  0  0  0  0
   -0.2162    2.4330   -0.0383 N   0  0  0  0  0  0
   -1.6130   -5.8147    0.0508 N   0  0  0  0  0  0
   -0.8288   -1.0404    0.0055 C   0  0  0  0  0  0
   -2.1121   -0.4388   -0.0086 C   0  0  0  0  0  0
   -0.7323    1.1658   -0.0147 C   0  0  0  0  0  0
    1.4363   -0.0150    0.0047 C   0  0  0  0  0  0
   -0.6628   -2.4314    0.0207 C   0  0  0  0  0  0
   -3.2608   -1.2415   -0.0104 C   0  0  0  0  0  0
   -1.8262   -3.2104    0.0194 C   0  0  0  0  0  0
   -3.0973   -2.6269    0.0033 C   0  0  0  0  0  0
    3.7833   -0.3599   -0.4657 C   0  0  0  0  0  0
    3.4696    0.3760    0.6729 C   0  0  0  0  0  0
   -1.7076   -4.6613    0.0367 C   0  0  0  0  0  0
    0.7793    2.6006   -0.0190 H   0  0  0  0  0  0
   -0.8161    3.2450   -0.0585 H   0  0  0  0  0  0
    0.3203   -2.8812    0.0343 H   0  0  0  0  0  0
   -4.2482   -0.8032   -0.0219 H   0  0  0  0  0  0
   -3.9813   -3.2500    0.0025 H   0  0  0  0  0  0
    4.7522   -0.6317   -0.8582 H   0  0  0  0  0  0
    4.1945    0.7973    1.3538 H   0  0  0  0  0  0
  1 10  1  0  0  0
  1 15  1  0  0  0
  2  7  1  0  0  0
  2  9  1  0  0  0
  2 10  1  0  0  0
  3  8  1  0  0  0
  3  9  2  0  0  0
  4 10  2  0  0  0
  4 16  1  0  0  0
  5  9  1  0  0  0
  5 18  1  0  0  0
  5 19  1  0  0  0
  6 17  3  0  0  0
  7  8  2  0  0  0
  7 11  1  0  0  0
  8 12  1  0  0  0
 11 13  2  0  0  0
 11 20  1  0  0  0
 12 14  2  0  0  0
 12 21  1  0  0  0
 13 14  1  0  0  0
 13 17  1  0  0  0
 14 22  1  0  0  0
 15 16  2  0  0  0
 15 23  1  0  0  0
 16 24  1  0  0  0
M  END
> <chembl_id>
CHEMBL1988805

> <chembl_pref_name>
None

> <s_m_source_file>
sdf/inactives_sanitized.sdf

> <i_m_source_file_index>
171

> <i_lp_mmshare_version>
49012

> <i_m_ct_stereo_status>
1

> <i_f3d_flags>
0

> <s_epik_input>
bjFbY0hdW2NIXXNjMS1uMmMoW05IMl0pbmMoYzIzKVtjSF1bY0hdYyhbY0hdMylDI04=

> <s_epik_cmdline>
J2VwaWtfcHl0aG9uJywgJy1waHQnLCAnMC41JywgJy1waCcsICc3LjUnLCAnLW50JywgJy1tYScsICcyMDAnLCAnLWltYWUnLCAnPGluZmlsZS5tYWU+JywgJy1vbWFlJywgJzxvdXRmaWxlLm1hZT4n

> <r_lp_tautomer_probability>
1

> <r_epik_Ionization_Penalty>
  0.0004

> <r_epik_Ionization_Penalty_Charging>
  0.0000

> <r_epik_Ionization_Penalty_Neutral>
  0.0004

> <r_epik_State_Penalty>
 -0.0000

> <r_epik_Charging_Adjusted_Penalty>
0

> <i_epik_Tot_Q>
0

> <i_epik_Tot_abs_Q>
0

> <s_lp_Force_Field>
OPLS3e

> <r_lp_Energy>
15.455423

> <b_lp_Chiralities_Consistent>
1

> <s_lp_Variant>
sdf/inactives_sanitized.sdf:171-1

$$$$
sdf/inactives_sanitized.sdf:172
                    3D
 Schrodinger Suite 2020-1.
 49 51  0  0  1  0            999 V2000
   -6.9348   -0.3950    1.0495 C   0  0  0  0  0  0
   -6.2842    0.3210    0.0048 O   0  0  0  0  0  0
   -4.9303    0.5778    0.1053 C   0  0  0  0  0  0
   -4.3497    1.2795   -0.9522 C   0  0  0  0  0  0
   -2.9908    1.5818   -0.9413 C   0  0  0  0  0  0
   -2.1977    1.1810    0.1352 C   0  0  0  0  0  0
   -0.7110    1.4965    0.1533 C   0  0  0  0  0  0
    0.0212    0.2782    0.0509 O   0  0  0  0  0  0
    1.4046    0.3055    0.0528 C   0  0  0  0  0  0
    2.1602    1.4846    0.1713 C   0  0  0  0  0  0
    3.5517    1.4406    0.1605 C   0  0  0  0  0  0
    4.2152    0.2220    0.0212 C   0  0  0  0  0  0
    5.7373    0.1785    0.0121 C   0  0  0  0  0  0
    6.3500    0.7102   -1.2814 C   0  0  0  0  0  0
    6.9059    1.9949   -1.3243 C   0  0  0  0  0  0
    7.4753    2.5130   -2.4432 N   0  0  0  0  0  0
    7.4886    1.7116   -3.5367 C   0  0  0  0  0  0
    8.0631    2.2267   -4.6944 N   0  0  0  0  0  0
    6.9908    0.4511   -3.6000 N   0  0  0  0  0  0
    6.4261   -0.0431   -2.4674 C   0  0  0  0  0  0
    5.9202   -1.3403   -2.5463 N   0  0  0  0  0  0
    3.4717   -0.9556   -0.0830 C   0  0  0  0  0  0
    2.0660   -0.9259   -0.0713 C   0  0  0  0  0  0
    1.2748   -2.0566   -0.1786 O   0  0  0  0  0  0
    1.8896   -3.3342   -0.3038 C   0  0  0  0  0  0
   -2.7685    0.4804    1.1988 C   0  0  0  0  0  0
   -4.1276    0.1792    1.1862 C   0  0  0  0  0  0
   -7.9896   -0.5139    0.8021 H   0  0  0  0  0  0
   -6.8766    0.1413    1.9979 H   0  0  0  0  0  0
   -6.5116   -1.3929    1.1755 H   0  0  0  0  0  0
   -4.9565    1.5910   -1.7901 H   0  0  0  0  0  0
   -2.5595    2.1229   -1.7710 H   0  0  0  0  0  0
   -0.4553    2.1641   -0.6723 H   0  0  0  0  0  0
   -0.4733    2.0151    1.0841 H   0  0  0  0  0  0
    1.6850    2.4483    0.2719 H   0  0  0  0  0  0
    4.1141    2.3586    0.2522 H   0  0  0  0  0  0
    6.1059    0.7583    0.8602 H   0  0  0  0  0  0
    6.0913   -0.8388    0.1876 H   0  0  0  0  0  0
    6.8979    2.6349   -0.4539 H   0  0  0  0  0  0
    8.0872    1.6597   -5.5293 H   0  0  0  0  0  0
    8.4410    3.1629   -4.6843 H   0  0  0  0  0  0
    5.4767   -1.7515   -1.7383 H   0  0  0  0  0  0
    5.9865   -1.8419   -3.4201 H   0  0  0  0  0  0
    4.0018   -1.8911   -0.1787 H   0  0  0  0  0  0
    1.1167   -4.0990   -0.3779 H   0  0  0  0  0  0
    2.5034   -3.5689    0.5672 H   0  0  0  0  0  0
    2.5033   -3.3973   -1.2038 H   0  0  0  0  0  0
   -2.1590    0.1653    2.0335 H   0  0  0  0  0  0
   -4.5389   -0.3658    2.0221 H   0  0  0  0  0  0
  1  2  1  0  0  0
  1 28  1  0  0  0
  1 29  1  0  0  0
  1 30  1  0  0  0
  2  3  1  0  0  0
  3  4  2  0  0  0
  3 27  1  0  0  0
  4  5  1  0  0  0
  4 31  1  0  0  0
  5  6  2  0  0  0
  5 32  1  0  0  0
  6  7  1  0  0  0
  6 26  1  0  0  0
  7  8  1  0  0  0
  7 33  1  0  0  0
  7 34  1  0  0  0
  8  9  1  0  0  0
  9 10  2  0  0  0
  9 23  1  0  0  0
 10 11  1  0  0  0
 10 35  1  0  0  0
 11 12  2  0  0  0
 11 36  1  0  0  0
 12 13  1  0  0  0
 12 22  1  0  0  0
 13 14  1  0  0  0
 13 37  1  0  0  0
 13 38  1  0  0  0
 14 15  2  0  0  0
 14 20  1  0  0  0
 15 16  1  0  0  0
 15 39  1  0  0  0
 16 17  2  0  0  0
 17 18  1  0  0  0
 17 19  1  0  0  0
 18 40  1  0  0  0
 18 41  1  0  0  0
 19 20  2  0  0  0
 20 21  1  0  0  0
 21 42  1  0  0  0
 21 43  1  0  0  0
 22 23  2  0  0  0
 22 44  1  0  0  0
 23 24  1  0  0  0
 24 25  1  0  0  0
 25 45  1  0  0  0
 25 46  1  0  0  0
 25 47  1  0  0  0
 26 27  2  0  0  0
 26 48  1  0  0  0
 27 49  1  0  0  0
M  END
> <chembl_id>
CHEMBL261849

> <chembl_pref_name>
GW632580X

> <s_m_source_file>
sdf/inactives_sanitized.sdf

> <i_m_source_file_index>
172

> <i_lp_mmshare_version>
49012

> <i_m_ct_stereo_status>
1

> <i_f3d_flags>
0

> <s_epik_input>
W0NIM11PYzFbY0hdW2NIXWMoW2NIXVtjSF0xKVtDSDJdT2MyW2NIXVtjSF1jKFtjSF1jMk9bQ0gzXSlbQ0gyXWMzW2NIXW5jKFtOSDJdKW5jM1tOSDJd

> <s_epik_cmdline>
J2VwaWtfcHl0aG9uJywgJy1waHQnLCAnMC41JywgJy1waCcsICc3LjUnLCAnLW50JywgJy1tYScsICcyMDAnLCAnLWltYWUnLCAnPGluZmlsZS5tYWU+JywgJy1vbWFlJywgJzxvdXRmaWxlLm1hZT4n

> <r_lp_tautomer_probability>
0.999999624730965

> <r_epik_Ionization_Penalty>
  0.3620

> <r_epik_Ionization_Penalty_Charging>
  0.0000

> <r_epik_Ionization_Penalty_Neutral>
  0.3620

> <r_epik_State_Penalty>
  0.2628

> <r_epik_Charging_Adjusted_Penalty>
0.262803468897119

> <i_epik_Tot_Q>
0

> <i_epik_Tot_abs_Q>
0

> <s_lp_Force_Field>
OPLS3e

> <r_lp_Energy>
33.893803

> <b_lp_Chiralities_Consistent>
1

> <s_lp_Variant>
sdf/inactives_sanitized.sdf:172-1

$$$$
sdf/inactives_sanitized.sdf:173
                    3D
 Schrodinger Suite 2020-1.
 35 37  0  0  1  0            999 V2000
   -5.9997   -1.6474   -1.7306 F   0  0  0  0  0  0
   -8.2037   -0.0335   -1.5249 F   0  0  0  0  0  0
    5.7147    1.9363    0.9261 F   0  0  0  0  0  0
    4.0182    2.6738    2.0411 F   0  0  0  0  0  0
    4.2636    3.2072   -0.0455 F   0  0  0  0  0  0
   -0.2641    2.5821    0.2638 O   0  0  0  0  0  0
   -2.0172    1.1735   -0.1933 N   0  0  0  0  0  0
   -5.5260    3.5553    0.0641 N   0  0  0  0  0  0
    2.2371    1.2355    0.3401 N   0  0  0  0  0  0
    0.0299    0.3491   -0.1398 N   0  0  0  0  0  0
   -4.4307    1.4371   -0.4768 C   0  0  0  0  0  0
   -5.5916    2.2694   -0.3735 C   0  0  0  0  0  0
   -3.1630    1.9978   -0.1059 C   0  0  0  0  0  0
   -4.6036    0.1015   -0.9445 C   0  0  0  0  0  0
    3.5769    1.0192    0.4401 C   0  0  0  0  0  0
   -5.8651   -0.3757   -1.2899 C   0  0  0  0  0  0
   -6.9845    0.4436   -1.1855 C   0  0  0  0  0  0
   -6.8604    1.7537   -0.7335 C   0  0  0  0  0  0
    4.4151    2.2289    0.8481 C   0  0  0  0  0  0
    1.4249    0.1999   -0.0212 C   0  0  0  0  0  0
   -3.1368    3.3259    0.3505 C   0  0  0  0  0  0
   -0.7147    1.4662    0.0019 C   0  0  0  0  0  0
   -4.3191    4.0529    0.4147 C   0  0  0  0  0  0
    4.1489   -0.2330    0.1851 C   0  0  0  0  0  0
    1.9374   -1.0744   -0.2868 C   0  0  0  0  0  0
    3.3128   -1.2878   -0.1817 C   0  0  0  0  0  0
   -2.2230    0.2135   -0.4271 H   0  0  0  0  0  0
   -0.4645   -0.4980   -0.3775 H   0  0  0  0  0  0
   -3.7511   -0.5552   -1.0362 H   0  0  0  0  0  0
   -7.7357    2.3831   -0.6551 H   0  0  0  0  0  0
   -2.2318    3.8181    0.6667 H   0  0  0  0  0  0
   -4.3105    5.0749    0.7641 H   0  0  0  0  0  0
    5.2141   -0.3933    0.2674 H   0  0  0  0  0  0
    1.2878   -1.8904   -0.5704 H   0  0  0  0  0  0
    3.7279   -2.2645   -0.3828 H   0  0  0  0  0  0
  1 16  1  0  0  0
  2 17  1  0  0  0
  3 19  1  0  0  0
  4 19  1  0  0  0
  5 19  1  0  0  0
  6 22  2  0  0  0
  7 13  1  0  0  0
  7 22  1  0  0  0
  7 27  1  0  0  0
  8 12  2  0  0  0
  8 23  1  0  0  0
  9 15  2  0  0  0
  9 20  1  0  0  0
 10 20  1  0  0  0
 10 22  1  0  0  0
 10 28  1  0  0  0
 11 12  1  0  0  0
 11 13  2  0  0  0
 11 14  1  0  0  0
 12 18  1  0  0  0
 13 21  1  0  0  0
 14 16  2  0  0  0
 14 29  1  0  0  0
 15 19  1  0  0  0
 15 24  1  0  0  0
 16 17  1  0  0  0
 17 18  2  0  0  0
 18 30  1  0  0  0
 20 25  2  0  0  0
 21 23  2  0  0  0
 21 31  1  0  0  0
 23 32  1  0  0  0
 24 26  2  0  0  0
 24 33  1  0  0  0
 25 26  1  0  0  0
 25 34  1  0  0  0
 26 35  1  0  0  0
M  END
> <chembl_id>
CHEMBL1981792

> <chembl_pref_name>
None

> <s_m_source_file>
sdf/inactives_sanitized.sdf

> <i_m_source_file_index>
173

> <i_lp_mmshare_version>
49012

> <i_m_ct_stereo_status>
1

> <i_f3d_flags>
0

> <s_epik_input>
RmMoW2NIXTEpYyhGKVtjSF1jKGMxMiluW2NIXVtjSF1jMltOSF1DKD1PKVtOSF1jKG5jM0MoRikoRilGKVtjSF1bY0hdW2NIXTM=

> <s_epik_cmdline>
J2VwaWtfcHl0aG9uJywgJy1waHQnLCAnMC41JywgJy1waCcsICc3LjUnLCAnLW50JywgJy1tYScsICcyMDAnLCAnLWltYWUnLCAnPGluZmlsZS5tYWU+JywgJy1vbWFlJywgJzxvdXRmaWxlLm1hZT4n

> <r_lp_tautomer_probability>
1

> <r_epik_Ionization_Penalty>
  0.0009

> <r_epik_Ionization_Penalty_Charging>
  0.0000

> <r_epik_Ionization_Penalty_Neutral>
  0.0009

> <r_epik_State_Penalty>
 -0.0000

> <r_epik_Charging_Adjusted_Penalty>
0

> <i_epik_Tot_Q>
0

> <i_epik_Tot_abs_Q>
0

> <s_lp_Force_Field>
OPLS3e

> <r_lp_Energy>
47.258054

> <b_lp_Chiralities_Consistent>
1

> <s_lp_Variant>
sdf/inactives_sanitized.sdf:173-1

$$$$
sdf/inactives_sanitized.sdf:174
                    3D
 Schrodinger Suite 2020-1.
 19 21  0  0  1  0            999 V2000
    4.3107   -1.4658    0.6948 Cl  0  0  0  0  0  0
   -3.1780    1.3502    0.5381 O   0  0  0  0  0  0
   -1.6440    0.4085   -0.8514 N   0  0  0  0  0  0
   -1.1223    0.7882    1.4032 N   0  5  0  0  0  0
   -0.3955   -0.4766   -2.4448 N   0  0  0  0  0  0
   -2.4100    0.4178   -1.9536 N   0  0  0  0  0  0
   -0.4252   -0.1405   -1.1796 C   0  0  0  0  0  0
    0.5761   -0.2388   -0.0744 C   0  0  0  0  0  0
    0.1375    0.2500    1.1786 C   0  0  0  0  0  0
   -2.0375    0.8924    0.4490 C   0  0  0  0  0  0
    1.8608   -0.7664   -0.2209 C   0  0  0  0  0  0
    1.0183    0.1927    2.2645 C   0  0  0  0  0  0
   -1.6050   -0.1185   -2.8471 C   0  0  0  0  0  0
    2.7226   -0.8141    0.8743 C   0  0  0  0  0  0
    2.3014   -0.3351    2.1147 C   0  0  0  0  0  0
    2.1866   -1.1373   -1.1821 H   0  0  0  0  0  0
    0.7158    0.5575    3.2363 H   0  0  0  0  0  0
   -1.9198   -0.2611   -3.8703 H   0  0  0  0  0  0
    2.9673   -0.3711    2.9645 H   0  0  0  0  0  0
  1 14  1  0  0  0
  2 10  2  0  0  0
  3  6  1  0  0  0
  3  7  1  0  0  0
  3 10  1  0  0  0
  4  9  1  0  0  0
  4 10  1  0  0  0
  5  7  2  0  0  0
  5 13  1  0  0  0
  6 13  2  0  0  0
  7  8  1  0  0  0
  8  9  2  0  0  0
  8 11  1  0  0  0
  9 12  1  0  0  0
 11 14  2  0  0  0
 11 16  1  0  0  0
 12 15  2  0  0  0
 12 17  1  0  0  0
 13 18  1  0  0  0
 14 15  1  0  0  0
 15 19  1  0  0  0
M  CHG  1   4  -1
M  END
> <chembl_id>
CHEMBL1992673

> <chembl_pref_name>
None

> <s_m_source_file>
sdf/inactives_sanitized.sdf

> <i_m_source_file_index>
174

> <i_lp_mmshare_version>
49012

> <i_m_ct_stereo_status>
1

> <i_f3d_flags>
0

> <s_epik_input>
Q2xjKFtjSF0xKVtjSF1bY0hdYyhbbkhdYzI9TyljMWMobjIzKW5bY0hdbjM=

> <s_epik_cmdline>
J2VwaWtfcHl0aG9uJywgJy1waHQnLCAnMC41JywgJy1waCcsICc3LjUnLCAnLW50JywgJy1tYScsICcyMDAnLCAnLWltYWUnLCAnPGluZmlsZS5tYWU+JywgJy1vbWFlJywgJzxvdXRmaWxlLm1hZT4n

> <r_lp_tautomer_probability>
1

> <r_epik_Ionization_Penalty>
  0.0000

> <r_epik_Ionization_Penalty_Charging>
  0.0000

> <r_epik_Ionization_Penalty_Neutral>
  0.0000

> <r_epik_State_Penalty>
 -0.0000

> <r_epik_Charging_Adjusted_Penalty>
1.31295151532039e-12

> <i_epik_Tot_Q>
-1

> <i_epik_Tot_abs_Q>
1

> <s_lp_Force_Field>
OPLS3e

> <r_lp_Energy>
32.071598

> <b_lp_Chiralities_Consistent>
1

> <s_lp_Variant>
sdf/inactives_sanitized.sdf:174-1

$$$$
sdf/inactives_sanitized.sdf:175
                    3D
 Schrodinger Suite 2020-1.
 31 34  0  0  1  0            999 V2000
   -8.4800   -5.3197   -0.0000 Br  0  0  0  0  0  0
   -3.9085    3.8343    0.0000 F   0  0  0  0  0  0
   -0.0027   -0.0142   -0.0000 N   0  0  0  0  0  0
   -2.9763   -3.1524   -0.0000 N   0  0  0  0  0  0
   -6.4866   -3.3151   -0.0000 N   0  0  0  0  0  0
   -4.3244   -5.1906   -0.0000 N   0  0  0  0  0  0
   -2.1280   -0.8259   -0.0000 C   0  0  0  0  0  0
   -3.2280   -1.7927   -0.0000 C   0  0  0  0  0  0
   -2.1805    0.6165   -0.0000 C   0  0  0  0  0  0
   -0.8292    1.0944    0.0000 C   0  0  0  0  0  0
   -5.2088   -2.9131   -0.0000 C   0  0  0  0  0  0
   -4.1552   -3.8634   -0.0000 C   0  0  0  0  0  0
   -4.6095   -1.6150   -0.0000 C   0  0  0  0  0  0
   -0.7809   -1.1456   -0.0000 C   0  0  0  0  0  0
   -3.2186    1.5661   -0.0000 C   0  0  0  0  0  0
   -0.5200    2.4614    0.0000 C   0  0  0  0  0  0
   -2.9088    2.9237    0.0000 C   0  0  0  0  0  0
   -6.6946   -4.6622   -0.0000 C   0  0  0  0  0  0
   -1.5875    3.3571    0.0000 C   0  0  0  0  0  0
   -5.6313   -5.5729   -0.0000 C   0  0  0  0  0  0
    1.4517    0.0045    0.0000 C   0  0  0  0  0  0
   -2.0382   -3.5253   -0.0000 H   0  0  0  0  0  0
   -5.1282   -0.6702   -0.0000 H   0  0  0  0  0  0
   -0.3020   -2.1144   -0.0000 H   0  0  0  0  0  0
   -4.2533    1.2655   -0.0000 H   0  0  0  0  0  0
    0.5000    2.8175    0.0000 H   0  0  0  0  0  0
   -1.3834    4.4180    0.0000 H   0  0  0  0  0  0
   -5.8183   -6.6369   -0.0000 H   0  0  0  0  0  0
    1.8477   -1.0120    0.0000 H   0  0  0  0  0  0
    1.8051    0.5281    0.8889 H   0  0  0  0  0  0
    1.8051    0.5281   -0.8889 H   0  0  0  0  0  0
  1 18  1  0  0  0
  2 17  1  0  0  0
  3 10  1  0  0  0
  3 14  1  0  0  0
  3 21  1  0  0  0
  4  8  1  0  0  0
  4 12  1  0  0  0
  4 22  1  0  0  0
  5 11  2  0  0  0
  5 18  1  0  0  0
  6 12  2  0  0  0
  6 20  1  0  0  0
  7  8  1  0  0  0
  7  9  1  0  0  0
  7 14  2  0  0  0
  8 13  2  0  0  0
  9 10  2  0  0  0
  9 15  1  0  0  0
 10 16  1  0  0  0
 11 12  1  0  0  0
 11 13  1  0  0  0
 13 23  1  0  0  0
 14 24  1  0  0  0
 15 17  2  0  0  0
 15 25  1  0  0  0
 16 19  2  0  0  0
 16 26  1  0  0  0
 17 19  1  0  0  0
 18 20  2  0  0  0
 19 27  1  0  0  0
 20 28  1  0  0  0
 21 29  1  0  0  0
 21 30  1  0  0  0
 21 31  1  0  0  0
M  END
> <chembl_id>
CHEMBL1993335

> <chembl_pref_name>
None

> <s_m_source_file>
sdf/inactives_sanitized.sdf

> <i_m_source_file_index>
175

> <i_lp_mmshare_version>
49012

> <i_m_ct_stereo_status>
1

> <i_f3d_flags>
0

> <s_epik_input>
QnJjKG4xKVtjSF1uYyhjMTIpW25IXWMoW2NIXTIpLWMzW2NIXW4oW0NIM10pYyhjMzQpW2NIXVtjSF1jKEYpW2NIXTQ=

> <s_epik_cmdline>
J2VwaWtfcHl0aG9uJywgJy1waHQnLCAnMC41JywgJy1waCcsICc3LjUnLCAnLW50JywgJy1tYScsICcyMDAnLCAnLWltYWUnLCAnPGluZmlsZS5tYWU+JywgJy1vbWFlJywgJzxvdXRmaWxlLm1hZT4n

> <r_lp_tautomer_probability>
1

> <r_epik_Ionization_Penalty>
  0.0001

> <r_epik_Ionization_Penalty_Charging>
  0.0000

> <r_epik_Ionization_Penalty_Neutral>
  0.0001

> <r_epik_State_Penalty>
 -0.0000

> <r_epik_Charging_Adjusted_Penalty>
0

> <i_epik_Tot_Q>
0

> <i_epik_Tot_abs_Q>
0

> <s_lp_Force_Field>
OPLS3e

> <r_lp_Energy>
25.470812

> <b_lp_Chiralities_Consistent>
1

> <s_lp_Variant>
sdf/inactives_sanitized.sdf:175-1

$$$$
sdf/inactives_sanitized.sdf:176
                    3D
 Schrodinger Suite 2020-1.
 44 47  0  0  1  0            999 V2000
    0.9901   -4.3408    0.4042 O   0  0  0  0  0  0
    1.0367    3.6487    0.9648 O   0  0  0  0  0  0
    0.0443   -0.0785   -0.0413 N   0  0  0  0  0  0
   -2.0167   -0.9853    0.0349 N   0  0  0  0  0  0
    1.1171    3.3124   -1.2881 N   0  0  0  0  0  0
    0.8814   -2.9691    0.6130 N   0  0  0  0  0  0
   -3.1740    2.5272    0.1783 N   0  0  0  0  0  0
   -0.0852   -4.8219   -0.3364 N   0  0  0  0  0  0
   -1.9792   -3.8716   -1.2770 N   0  0  0  0  0  0
    0.9065    3.5981   -5.0056 N   0  3  0  0  0  0
   -0.8416    0.9976    0.0116 C   0  0  0  0  0  0
   -0.7319   -1.2368   -0.0072 C   0  0  0  0  0  0
   -2.1140    0.3730    0.0674 C   0  0  0  0  0  0
   -0.7363    2.4081    0.0221 C   0  0  0  0  0  0
   -0.2305   -2.6275    0.0068 C   0  0  0  0  0  0
    0.5533    3.1742   -0.0635 C   0  0  0  0  0  0
   -3.2581    1.1765    0.1473 C   0  0  0  0  0  0
   -0.8194   -3.7639   -0.5639 C   0  0  0  0  0  0
   -1.9492    3.1043    0.1214 C   0  0  0  0  0  0
    1.5079   -0.0107   -0.0836 C   0  0  0  0  0  0
    0.5328    2.8140   -2.5412 C   0  0  0  0  0  0
    2.3595    4.0603   -1.5000 C   0  0  0  0  0  0
    1.4995    3.3002   -3.6256 C   0  0  2  0  0  0
    2.2594    4.4456   -2.9731 C   0  0  0  0  0  0
    2.0892    0.1644    1.3287 C   0  0  0  0  0  0
   -2.5746   -3.0726   -1.4415 H   0  0  0  0  0  0
   -2.2977   -4.7600   -1.6364 H   0  0  0  0  0  0
    0.2323    4.3475   -4.9403 H   0  0  0  0  0  0
    0.4461    2.7774   -5.3729 H   0  0  0  0  0  0
   -4.2480    0.7468    0.1952 H   0  0  0  0  0  0
   -1.9578    4.1851    0.1447 H   0  0  0  0  0  0
    1.9011   -0.9081   -0.5595 H   0  0  0  0  0  0
    1.8110    0.8059   -0.7337 H   0  0  0  0  0  0
    0.4391    1.7277   -2.5769 H   0  0  0  0  0  0
   -0.4489    3.2579   -2.7151 H   0  0  0  0  0  0
    2.4341    4.9528   -0.8760 H   0  0  0  0  0  0
    3.2151    3.3998   -1.3517 H   0  0  0  0  0  0
    2.2024    2.4890   -3.8261 H   0  0  0  0  0  0
    1.6754    5.3653   -3.0460 H   0  0  0  0  0  0
    3.2339    4.6430   -3.4218 H   0  0  0  0  0  0
    3.1771    0.2229    1.2934 H   0  0  0  0  0  0
    1.8270   -0.6726    1.9765 H   0  0  0  0  0  0
    1.7265    1.0755    1.8048 H   0  0  0  0  0  0
    1.6371    3.8744   -5.6461 H   0  0  0  0  0  0
  1  6  1  0  0  0
  1  8  1  0  0  0
  2 16  2  0  0  0
  3 11  1  0  0  0
  3 12  1  0  0  0
  3 20  1  0  0  0
  4 12  2  0  0  0
  4 13  1  0  0  0
  5 16  1  0  0  0
  5 21  1  0  0  0
  5 22  1  0  0  0
  6 15  2  0  0  0
  7 17  2  0  0  0
  7 19  1  0  0  0
  8 18  2  0  0  0
  9 18  1  0  0  0
  9 26  1  0  0  0
  9 27  1  0  0  0
 10 23  1  0  0  0
 10 28  1  0  0  0
 10 29  1  0  0  0
 10 44  1  0  0  0
 11 13  2  0  0  0
 11 14  1  0  0  0
 12 15  1  0  0  0
 13 17  1  0  0  0
 14 16  1  0  0  0
 14 19  2  0  0  0
 15 18  1  0  0  0
 17 30  1  0  0  0
 19 31  1  0  0  0
 20 25  1  0  0  0
 20 32  1  0  0  0
 20 33  1  0  0  0
 21 23  1  0  0  0
 21 34  1  0  0  0
 21 35  1  0  0  0
 22 24  1  0  0  0
 22 36  1  0  0  0
 22 37  1  0  0  0
 23 24  1  0  0  0
 23 38  1  0  0  0
 24 39  1  0  0  0
 24 40  1  0  0  0
 25 41  1  0  0  0
 25 42  1  0  0  0
 25 43  1  0  0  0
M  CHG  1  10   1
M  END
> <chembl_id>
CHEMBL1870106

> <chembl_pref_name>
None

> <s_m_source_file>
sdf/inactives_sanitized.sdf

> <i_m_source_file_index>
176

> <i_lp_mmshare_version>
49012

> <i_m_ct_stereo_status>
1

> <i_f3d_flags>
0

> <s_epik_input>
W05IMl1jMW5vbmMxLWMobjJbQ0gyXVtDSDNdKW5jKGMyMylbY0hdbltjSF1jM0MoPU8pTjRbQ0gyXVtDQEBIXShbTkgyXSlbQ0gyXVtDSDJdNA==

> <s_epik_cmdline>
J2VwaWtfcHl0aG9uJywgJy1waHQnLCAnMC41JywgJy1waCcsICc3LjUnLCAnLW50JywgJy1tYScsICcyMDAnLCAnLWltYWUnLCAnPGluZmlsZS5tYWU+JywgJy1vbWFlJywgJzxvdXRmaWxlLm1hZT4n

> <r_lp_tautomer_probability>
1

> <r_epik_Ionization_Penalty>
  0.0132

> <r_epik_Ionization_Penalty_Charging>
  0.0131

> <r_epik_Ionization_Penalty_Neutral>
  0.0000

> <r_epik_State_Penalty>
  0.0102

> <r_epik_Charging_Adjusted_Penalty>
0.0233320638052664

> <i_epik_Tot_Q>
1

> <i_epik_Tot_abs_Q>
1

> <s_lp_Force_Field>
OPLS3e

> <r_lp_Energy>
28.578323

> <b_lp_Chiralities_Consistent>
1

> <s_lp_Variant>
sdf/inactives_sanitized.sdf:176-1

$$$$
sdf/inactives_sanitized.sdf:177
                    3D
 Schrodinger Suite 2020-1.
 32 33  0  0  1  0            999 V2000
    6.0815    0.1441   -0.2917 Br  0  0  0  0  0  0
    4.5910    4.8517    1.4274 S   0  0  0  0  0  0
    4.0448    2.3703    0.5998 N   0  0  0  0  0  0
    2.0427    1.0923    0.2638 N   0  0  0  0  0  0
    2.1420   -1.1724   -0.5442 N   0  0  0  0  0  0
    2.2391    3.8913    1.1092 N   0  0  0  0  0  0
    0.0642   -0.2048   -0.0872 N   0  0  0  0  0  0
    3.4014    1.1775    0.2187 C   0  0  0  0  0  0
    4.1755    0.0872   -0.2080 C   0  0  0  0  0  0
    3.5046    3.5733    1.0025 C   0  0  0  0  0  0
    1.4622   -0.0771   -0.1204 C   0  0  0  0  0  0
    3.4956   -1.0740   -0.5817 C   0  0  0  0  0  0
    3.2276    5.8829    1.7786 C   0  0  0  0  0  0
    2.0797    5.1306    1.5258 C   0  0  0  0  0  0
   -0.8255    0.8737    0.3423 C   0  0  0  0  0  0
    3.3881    7.3045    2.2582 C   0  0  0  0  0  0
   -2.1841    0.3146    0.7933 C   0  0  0  0  0  0
   -1.0012    1.9488   -0.7471 C   0  0  0  0  0  0
    5.0495    2.2875    0.5437 H   0  0  0  0  0  0
   -0.3494   -1.0846   -0.3596 H   0  0  0  0  0  0
    4.0341   -1.9474   -0.9195 H   0  0  0  0  0  0
    1.0726    5.5005    1.6505 H   0  0  0  0  0  0
   -0.3733    1.3543    1.2118 H   0  0  0  0  0  0
    2.4260    7.7819    2.4460 H   0  0  0  0  0  0
    3.9140    7.9177    1.5261 H   0  0  0  0  0  0
    3.9558    7.3518    3.1875 H   0  0  0  0  0  0
   -2.8348    1.1090    1.1607 H   0  0  0  0  0  0
   -2.0647   -0.4059    1.6034 H   0  0  0  0  0  0
   -2.7028   -0.1884   -0.0240 H   0  0  0  0  0  0
   -1.6509    2.7543   -0.4037 H   0  0  0  0  0  0
   -1.4402    1.5312   -1.6542 H   0  0  0  0  0  0
   -0.0485    2.4030   -1.0216 H   0  0  0  0  0  0
  1  9  1  0  0  0
  2 10  1  0  0  0
  2 13  1  0  0  0
  3  8  1  0  0  0
  3 10  1  0  0  0
  3 19  1  0  0  0
  4  8  2  0  0  0
  4 11  1  0  0  0
  5 11  2  0  0  0
  5 12  1  0  0  0
  6 10  2  0  0  0
  6 14  1  0  0  0
  7 11  1  0  0  0
  7 15  1  0  0  0
  7 20  1  0  0  0
  8  9  1  0  0  0
  9 12  2  0  0  0
 12 21  1  0  0  0
 13 14  2  0  0  0
 13 16  1  0  0  0
 14 22  1  0  0  0
 15 17  1  0  0  0
 15 18  1  0  0  0
 15 23  1  0  0  0
 16 24  1  0  0  0
 16 25  1  0  0  0
 16 26  1  0  0  0
 17 27  1  0  0  0
 17 28  1  0  0  0
 17 29  1  0  0  0
 18 30  1  0  0  0
 18 31  1  0  0  0
 18 32  1  0  0  0
M  END
> <chembl_id>
CHEMBL1973013

> <chembl_pref_name>
None

> <s_m_source_file>
sdf/inactives_sanitized.sdf

> <i_m_source_file_index>
177

> <i_lp_mmshare_version>
49012

> <i_m_ct_stereo_status>
1

> <i_f3d_flags>
0

> <s_epik_input>
QnJjMVtjSF1uYyhbTkhdW0NIXShbQ0gzXSlbQ0gzXSluYzFbTkhdYzJzYyhbY0hdbjIpW0NIM10=

> <s_epik_cmdline>
J2VwaWtfcHl0aG9uJywgJy1waHQnLCAnMC41JywgJy1waCcsICc3LjUnLCAnLW50JywgJy1tYScsICcyMDAnLCAnLWltYWUnLCAnPGluZmlsZS5tYWU+JywgJy1vbWFlJywgJzxvdXRmaWxlLm1hZT4n

> <r_lp_tautomer_probability>
1

> <r_epik_Ionization_Penalty>
  0.0001

> <r_epik_Ionization_Penalty_Charging>
  0.0000

> <r_epik_Ionization_Penalty_Neutral>
  0.0001

> <r_epik_State_Penalty>
 -0.0000

> <r_epik_Charging_Adjusted_Penalty>
0

> <i_epik_Tot_Q>
0

> <i_epik_Tot_abs_Q>
0

> <s_lp_Force_Field>
OPLS3e

> <r_lp_Energy>
14.249881

> <b_lp_Chiralities_Consistent>
1

> <s_lp_Variant>
sdf/inactives_sanitized.sdf:177-1

$$$$
sdf/inactives_sanitized.sdf:178
                    3D
 Schrodinger Suite 2020-1.
 56 60  0  0  1  0            999 V2000
   -0.3513    1.6026   -0.0998 C   0  0  0  0  0  0
    0.3062    2.7353    0.4163 C   0  0  0  0  0  0
   -0.3829    3.9339    0.6137 C   0  0  0  0  0  0
   -1.7110    1.6945   -0.4116 C   0  0  0  0  0  0
    0.2562    0.3822   -0.3265 O   0  0  0  0  0  0
    1.6361    0.2206   -0.0093 C   0  0  0  0  0  0
   -2.3930    2.8928   -0.2098 C   0  0  0  0  0  0
   -1.7392    4.0193    0.3004 C   0  0  0  0  0  0
   -2.6867    5.2076    0.4278 C   0  0  0  0  0  0
   -3.7818    3.3182   -0.4212 C   0  0  0  0  0  0
   -3.9815    4.6210   -0.0706 C   0  0  0  0  0  0
   -5.3383    4.9098   -0.3096 C   0  0  0  0  0  0
   -5.9450    3.8348   -0.7863 N   0  0  0  0  0  0
   -5.0025    2.8836   -0.8517 N   0  0  0  0  0  0
   -6.0724    6.1977   -0.0873 C   0  0  0  0  0  0
   -5.3803    7.3929    0.1568 C   0  0  0  0  0  0
   -6.0809    8.5831    0.3626 C   0  0  0  0  0  0
   -7.4763    8.5465    0.3181 C   0  0  0  0  0  0
   -8.1768    7.4084    0.0833 N   0  0  0  0  0  0
   -7.4743    6.2633   -0.1144 C   0  0  0  0  0  0
    2.0601   -1.2145   -0.3553 C   0  0  0  0  0  0
   -8.2705    9.7466    0.5252 C   0  0  0  0  0  0
   -8.9019   10.7025    0.6903 N   0  0  0  0  0  0
    3.5348   -1.5004   -0.0210 C   0  0  0  0  0  0
    3.9496   -2.9529   -0.3387 C   0  0  0  0  0  0
    5.4013   -3.1588   -0.3165 N   0  0  0  0  0  0
    5.7386   -4.4814   -0.8594 C   0  0  0  0  0  0
    7.2572   -4.7518   -0.7988 C   0  0  0  0  0  0
    7.7283   -4.5829    0.5334 O   0  0  0  0  0  0
    7.5043   -3.2651    1.0216 C   0  0  0  0  0  0
    5.9943   -2.9430    1.0126 C   0  0  0  0  0  0
    1.3548    2.7058    0.6700 H   0  0  0  0  0  0
    0.1461    4.7880    1.0103 H   0  0  0  0  0  0
   -2.2254    0.8311   -0.8077 H   0  0  0  0  0  0
    1.7994    0.4091    1.0536 H   0  0  0  0  0  0
    2.2398    0.9300   -0.5788 H   0  0  0  0  0  0
   -2.7617    5.5572    1.4579 H   0  0  0  0  0  0
   -2.3547    6.0495   -0.1802 H   0  0  0  0  0  0
   -5.2003    1.9507   -1.1844 H   0  0  0  0  0  0
   -4.3018    7.4128    0.1854 H   0  0  0  0  0  0
   -5.5458    9.5035    0.5502 H   0  0  0  0  0  0
   -8.0699    5.3803   -0.2950 H   0  0  0  0  0  0
    1.4221   -1.9182    0.1817 H   0  0  0  0  0  0
    1.8878   -1.3917   -1.4181 H   0  0  0  0  0  0
    4.2033   -0.7862   -0.5050 H   0  0  0  0  0  0
    3.6428   -1.3405    1.0529 H   0  0  0  0  0  0
    3.4753   -3.6310    0.3735 H   0  0  0  0  0  0
    3.5446   -3.2282   -1.3145 H   0  0  0  0  0  0
    5.2031   -5.2547   -0.3053 H   0  0  0  0  0  0
    5.3881   -4.5511   -1.8900 H   0  0  0  0  0  0
    7.4663   -5.7736   -1.1154 H   0  0  0  0  0  0
    7.8001   -4.0968   -1.4831 H   0  0  0  0  0  0
    7.8926   -3.1992    2.0381 H   0  0  0  0  0  0
    8.0628   -2.5383    0.4285 H   0  0  0  0  0  0
    5.8374   -1.9120    1.3297 H   0  0  0  0  0  0
    5.4806   -3.5666    1.7467 H   0  0  0  0  0  0
  1  2  2  0  0  0
  1  4  1  0  0  0
  1  5  1  0  0  0
  2  3  1  0  0  0
  2 32  1  0  0  0
  3  8  2  0  0  0
  3 33  1  0  0  0
  4  7  2  0  0  0
  4 34  1  0  0  0
  5  6  1  0  0  0
  6 21  1  0  0  0
  6 35  1  0  0  0
  6 36  1  0  0  0
  7  8  1  0  0  0
  7 10  1  0  0  0
  8  9  1  0  0  0
  9 11  1  0  0  0
  9 37  1  0  0  0
  9 38  1  0  0  0
 10 11  2  0  0  0
 10 14  1  0  0  0
 11 12  1  0  0  0
 12 15  1  0  0  0
 12 13  2  0  0  0
 13 14  1  0  0  0
 14 39  1  0  0  0
 15 16  2  0  0  0
 15 20  1  0  0  0
 16 17  1  0  0  0
 16 40  1  0  0  0
 17 18  2  0  0  0
 17 41  1  0  0  0
 18 19  1  0  0  0
 18 22  1  0  0  0
 19 20  2  0  0  0
 20 42  1  0  0  0
 21 24  1  0  0  0
 21 43  1  0  0  0
 21 44  1  0  0  0
 22 23  3  0  0  0
 24 25  1  0  0  0
 24 45  1  0  0  0
 24 46  1  0  0  0
 25 26  1  0  0  0
 25 47  1  0  0  0
 25 48  1  0  0  0
 26 27  1  0  0  0
 26 31  1  0  0  0
 27 28  1  0  0  0
 27 49  1  0  0  0
 27 50  1  0  0  0
 28 29  1  0  0  0
 28 51  1  0  0  0
 28 52  1  0  0  0
 29 30  1  0  0  0
 30 31  1  0  0  0
 30 53  1  0  0  0
 30 54  1  0  0  0
 31 55  1  0  0  0
 31 56  1  0  0  0
M  END
> <chembl_id>
CHEMBL398951

> <chembl_pref_name>
None

> <s_m_source_file>
sdf/inactives_sanitized.sdf

> <i_m_source_file_index>
178

> <i_lp_mmshare_version>
49012

> <i_m_ct_stereo_status>
1

> <i_f3d_flags>
0

> <s_epik_input>
W0NIMl0xW0NIMl1PW0NIMl1bQ0gyXU4xW0NIMl1bQ0gyXVtDSDJdW0NIMl1PYyhbY0hdMilbY0hdW2NIXWMoYzIzKVtDSDJdYzRjM1tuSF1uYzQtYzVbY0hdW2NIXWMoQyNOKW5bY0hdNQ==

> <s_epik_cmdline>
J2VwaWtfcHl0aG9uJywgJy1waHQnLCAnMC41JywgJy1waCcsICc3LjUnLCAnLW50JywgJy1tYScsICcyMDAnLCAnLWltYWUnLCAnPGluZmlsZS5tYWU+JywgJy1vbWFlJywgJzxvdXRmaWxlLm1hZT4n

> <r_lp_tautomer_probability>
0.5

> <r_epik_Ionization_Penalty>
  0.3394

> <r_epik_Ionization_Penalty_Charging>
  0.0000

> <r_epik_Ionization_Penalty_Neutral>
  0.3394

> <r_epik_State_Penalty>
  0.3350

> <r_epik_Charging_Adjusted_Penalty>
0.334981035396278

> <i_epik_Tot_Q>
0

> <i_epik_Tot_abs_Q>
0

> <s_lp_Force_Field>
OPLS3e

> <r_lp_Energy>
32.962372

> <b_lp_Chiralities_Consistent>
1

> <s_lp_Variant>
sdf/inactives_sanitized.sdf:178-1

$$$$
sdf/inactives_sanitized.sdf:178
                    3D
 Schrodinger Suite 2020-1.
 57 61  0  0  1  0            999 V2000
   -0.3343    1.5487    0.0137 C   0  0  0  0  0  0
   -1.7312    1.5672    0.0877 C   0  0  0  0  0  0
   -2.4370    2.7716    0.1090 C   0  0  0  0  0  0
    0.3597    2.7707   -0.0465 C   0  0  0  0  0  0
    0.2675    0.3050    0.0062 O   0  0  0  0  0  0
    1.6889    0.2157   -0.0095 C   0  0  0  0  0  0
   -0.3511    3.9695   -0.0260 C   0  0  0  0  0  0
   -1.7479    3.9827    0.0531 C   0  0  0  0  0  0
   -2.2952    5.4058    0.0660 C   0  0  0  0  0  0
    0.0436    5.3825   -0.0702 C   0  0  0  0  0  0
   -1.0312    6.2208   -0.0197 C   0  0  0  0  0  0
   -0.5325    7.5364   -0.0715 C   0  0  0  0  0  0
    0.7882    7.5080   -0.1495 N   0  0  0  0  0  0
    1.1263    6.2108   -0.1474 N   0  0  0  0  0  0
   -1.2950    8.8276   -0.0500 C   0  0  0  0  0  0
   -2.6699    8.8521    0.2268 C   0  0  0  0  0  0
   -3.3641   10.0633    0.2427 C   0  0  0  0  0  0
   -2.6551   11.2366   -0.0223 C   0  0  0  0  0  0
   -1.3256   11.2495   -0.2932 N   0  0  0  0  0  0
   -0.6713   10.0597   -0.3027 C   0  0  0  0  0  0
    2.0840   -1.2657    0.0853 C   0  0  0  0  0  0
   -3.3145   12.5325   -0.0246 C   0  0  0  0  0  0
   -3.8407   13.5634   -0.0265 N   0  0  0  0  0  0
    3.6059   -1.4834    0.1289 C   0  0  0  0  0  0
    3.9778   -2.9726    0.2526 C   0  0  0  0  0  0
    5.5058   -3.1881    0.1329 N   0  3  0  0  0  0
    6.2845   -2.5809    1.3241 C   0  0  0  0  0  0
    7.7811   -2.9124    1.1645 C   0  0  0  0  0  0
    7.9744   -4.3172    1.0349 O   0  0  0  0  0  0
    7.3360   -4.8935   -0.1002 C   0  0  0  0  0  0
    5.8104   -4.6963   -0.0165 C   0  0  0  0  0  0
   -2.2763    0.6357    0.1327 H   0  0  0  0  0  0
   -3.5152    2.7517    0.1706 H   0  0  0  0  0  0
    1.4368    2.7968   -0.1087 H   0  0  0  0  0  0
    2.1106    0.7633    0.8356 H   0  0  0  0  0  0
    2.0824    0.6513   -0.9300 H   0  0  0  0  0  0
   -2.9622    5.5906   -0.7763 H   0  0  0  0  0  0
   -2.8565    5.6088    0.9785 H   0  0  0  0  0  0
    2.0871    5.9043   -0.2002 H   0  0  0  0  0  0
   -3.2109    7.9415    0.4329 H   0  0  0  0  0  0
   -4.4238   10.0799    0.4563 H   0  0  0  0  0  0
    0.3847   10.1153   -0.5239 H   0  0  0  0  0  0
    1.6314   -1.6983    0.9791 H   0  0  0  0  0  0
    1.6609   -1.8042   -0.7641 H   0  0  0  0  0  0
    4.0644   -1.0645   -0.7682 H   0  0  0  0  0  0
    4.0087   -0.9265    0.9747 H   0  0  0  0  0  0
    3.6670   -3.4141    1.2013 H   0  0  0  0  0  0
    3.5423   -3.5414   -0.5706 H   0  0  0  0  0  0
    6.1238   -1.5036    1.3084 H   0  0  0  0  0  0
    5.8605   -3.0002    2.2383 H   0  0  0  0  0  0
    8.2069   -2.3934    0.3037 H   0  0  0  0  0  0
    8.3334   -2.5657    2.0381 H   0  0  0  0  0  0
    7.7374   -4.4627   -1.0196 H   0  0  0  0  0  0
    7.5721   -5.9575   -0.1272 H   0  0  0  0  0  0
    5.3768   -5.2030    0.8480 H   0  0  0  0  0  0
    5.3103   -5.0351   -0.9249 H   0  0  0  0  0  0
    5.8331   -2.7372   -0.7102 H   0  0  0  0  0  0
  1  2  2  0  0  0
  1  4  1  0  0  0
  1  5  1  0  0  0
  2  3  1  0  0  0
  2 32  1  0  0  0
  3  8  2  0  0  0
  3 33  1  0  0  0
  4  7  2  0  0  0
  4 34  1  0  0  0
  5  6  1  0  0  0
  6 21  1  0  0  0
  6 35  1  0  0  0
  6 36  1  0  0  0
  7  8  1  0  0  0
  7 10  1  0  0  0
  8  9  1  0  0  0
  9 11  1  0  0  0
  9 37  1  0  0  0
  9 38  1  0  0  0
 10 11  2  0  0  0
 10 14  1  0  0  0
 11 12  1  0  0  0
 12 15  1  0  0  0
 12 13  2  0  0  0
 13 14  1  0  0  0
 14 39  1  0  0  0
 15 16  2  0  0  0
 15 20  1  0  0  0
 16 17  1  0  0  0
 16 40  1  0  0  0
 17 18  2  0  0  0
 17 41  1  0  0  0
 18 19  1  0  0  0
 18 22  1  0  0  0
 19 20  2  0  0  0
 20 42  1  0  0  0
 21 24  1  0  0  0
 21 43  1  0  0  0
 21 44  1  0  0  0
 22 23  3  0  0  0
 24 25  1  0  0  0
 24 45  1  0  0  0
 24 46  1  0  0  0
 25 26  1  0  0  0
 25 47  1  0  0  0
 25 48  1  0  0  0
 26 27  1  0  0  0
 26 31  1  0  0  0
 26 57  1  0  0  0
 27 28  1  0  0  0
 27 49  1  0  0  0
 27 50  1  0  0  0
 28 29  1  0  0  0
 28 51  1  0  0  0
 28 52  1  0  0  0
 29 30  1  0  0  0
 30 31  1  0  0  0
 30 53  1  0  0  0
 30 54  1  0  0  0
 31 55  1  0  0  0
 31 56  1  0  0  0
M  CHG  1  26   1
M  END
> <chembl_id>
CHEMBL398951

> <chembl_pref_name>
None

> <s_m_source_file>
sdf/inactives_sanitized.sdf

> <i_m_source_file_index>
178

> <i_lp_mmshare_version>
49012

> <i_m_ct_stereo_status>
1

> <i_f3d_flags>
0

> <s_epik_input>
W0NIMl0xW0NIMl1PW0NIMl1bQ0gyXU4xW0NIMl1bQ0gyXVtDSDJdW0NIMl1PYyhbY0hdMilbY0hdW2NIXWMoYzIzKVtDSDJdYzRjM1tuSF1uYzQtYzVbY0hdW2NIXWMoQyNOKW5bY0hdNQ==

> <s_epik_cmdline>
J2VwaWtfcHl0aG9uJywgJy1waHQnLCAnMC41JywgJy1waCcsICc3LjUnLCAnLW50JywgJy1tYScsICcyMDAnLCAnLWltYWUnLCAnPGluZmlsZS5tYWU+JywgJy1vbWFlJywgJzxvdXRmaWxlLm1hZT4n

> <r_lp_tautomer_probability>
0.5

> <r_epik_Ionization_Penalty>
  0.4917

> <r_epik_Ionization_Penalty_Charging>
  0.4917

> <r_epik_Ionization_Penalty_Neutral>
  0.0000

> <r_epik_State_Penalty>
  0.4975

> <r_epik_Charging_Adjusted_Penalty>
0.989191322009737

> <i_epik_Tot_Q>
1

> <i_epik_Tot_abs_Q>
1

> <s_lp_Force_Field>
OPLS3e

> <r_lp_Energy>
38.190371

> <b_lp_Chiralities_Consistent>
1

> <s_lp_Variant>
sdf/inactives_sanitized.sdf:178-2

$$$$
sdf/inactives_sanitized.sdf:179
                    3D
 Schrodinger Suite 2020-1.
 31 33  0  0  1  0            999 V2000
   -0.6554    1.1680    0.0258 N   0  0  0  0  0  0
   -2.0011    1.1194    0.0730 C   0  0  0  0  0  0
   -2.7471   -0.0039    0.0664 N   0  0  0  0  0  0
   -0.0150   -0.0237   -0.0419 C   0  0  0  0  0  0
   -2.0939   -1.1943   -0.0032 C   0  0  0  0  0  0
   -0.6725   -1.2790   -0.0892 C   0  0  0  0  0  0
    0.1128   -2.4613   -0.0789 N   0  0  0  0  0  0
   -2.8922   -2.3393   -0.0102 N   0  0  0  0  0  0
   -0.1697   -3.6784   -0.3873 C   0  0  0  0  0  0
   -2.6664   -3.1712   -1.1739 C   0  0  0  0  0  0
   -1.5232   -4.1643   -0.9526 C   0  0  0  0  0  0
    0.8912   -4.7216   -0.2099 C   0  0  0  0  0  0
    0.6551   -6.0709   -0.5342 C   0  0  0  0  0  0
    1.6465   -7.0340   -0.3652 C   0  0  0  0  0  0
    2.8919   -6.6659    0.1310 C   0  0  0  0  0  0
    3.1538   -5.3409    0.4602 C   0  0  0  0  0  0
    2.1627   -4.3779    0.2915 C   0  0  0  0  0  0
    1.3794    0.0718   -0.0706 N   0  0  0  0  0  0
   -2.5277    2.0607    0.1267 H   0  0  0  0  0  0
   -2.6994   -2.9080    0.8016 H   0  0  0  0  0  0
   -3.5879   -3.7108   -1.3955 H   0  0  0  0  0  0
   -2.4632   -2.5549   -2.0528 H   0  0  0  0  0  0
   -1.3495   -4.6597   -1.9084 H   0  0  0  0  0  0
   -1.9082   -4.9379   -0.2859 H   0  0  0  0  0  0
   -0.2929   -6.4099   -0.9227 H   0  0  0  0  0  0
    1.4487   -8.0650   -0.6196 H   0  0  0  0  0  0
    3.6601   -7.4138    0.2618 H   0  0  0  0  0  0
    4.1231   -5.0599    0.8452 H   0  0  0  0  0  0
    2.4053   -3.3594    0.5592 H   0  0  0  0  0  0
    1.9308   -0.7725   -0.1223 H   0  0  0  0  0  0
    1.8141    0.9826   -0.0383 H   0  0  0  0  0  0
  1  4  2  0  0  0
  1  2  1  0  0  0
  2  3  2  0  0  0
  2 19  1  0  0  0
  3  5  1  0  0  0
  4  6  1  0  0  0
  4 18  1  0  0  0
  5  6  2  0  0  0
  5  8  1  0  0  0
  6  7  1  0  0  0
  7  9  2  0  0  0
  8 10  1  0  0  0
  8 20  1  0  0  0
  9 11  1  0  0  0
  9 12  1  0  0  0
 10 11  1  0  0  0
 10 21  1  0  0  0
 10 22  1  0  0  0
 11 23  1  0  0  0
 11 24  1  0  0  0
 12 13  2  0  0  0
 12 17  1  0  0  0
 13 14  1  0  0  0
 13 25  1  0  0  0
 14 15  2  0  0  0
 14 26  1  0  0  0
 15 16  1  0  0  0
 15 27  1  0  0  0
 16 17  2  0  0  0
 16 28  1  0  0  0
 17 29  1  0  0  0
 18 30  1  0  0  0
 18 31  1  0  0  0
M  END
> <chembl_id>
CHEMBL262623

> <chembl_pref_name>
None

> <s_m_source_file>
sdf/inactives_sanitized.sdf

> <i_m_source_file_index>
179

> <i_lp_mmshare_version>
49012

> <i_m_ct_stereo_status>
1

> <i_f3d_flags>
0

> <s_epik_input>
bjFbY0hdbmMoW05IMl0pYyhjMTIpTj1DKFtDSDJdW0NIMl1bTkhdMiljM1tjSF1bY0hdW2NIXVtjSF1bY0hdMw==

> <s_epik_cmdline>
J2VwaWtfcHl0aG9uJywgJy1waHQnLCAnMC41JywgJy1waCcsICc3LjUnLCAnLW50JywgJy1tYScsICcyMDAnLCAnLWltYWUnLCAnPGluZmlsZS5tYWU+JywgJy1vbWFlJywgJzxvdXRmaWxlLm1hZT4n

> <r_lp_tautomer_probability>
0.999601159137504

> <r_epik_Ionization_Penalty>
  0.0223

> <r_epik_Ionization_Penalty_Charging>
  0.0000

> <r_epik_Ionization_Penalty_Neutral>
  0.0223

> <r_epik_State_Penalty>
  0.0141

> <r_epik_Charging_Adjusted_Penalty>
0.0140568629726917

> <i_epik_Tot_Q>
0

> <i_epik_Tot_abs_Q>
0

> <s_epik_Chemistry_Notes>
This compound has an imine and may undergo hydrolysis.

> <s_lp_Force_Field>
OPLS3e

> <r_lp_Energy>
66.485471

> <b_lp_Chiralities_Consistent>
1

> <s_lp_Variant>
sdf/inactives_sanitized.sdf:179-1

$$$$
sdf/inactives_sanitized.sdf:180
                    3D
 Schrodinger Suite 2020-1.
 17 19  0  0  1  0            999 V2000
   -6.8503    5.3416   -4.4849 Cl  0  0  0  0  0  0
   -3.1335    2.9751   -0.6025 N   0  0  0  0  0  0
   -3.1307    2.9456    0.7557 N   0  0  0  0  0  0
   -1.7696    2.1720   -2.3814 N   0  0  0  0  0  0
   -2.6302    2.7197   -3.2637 N   0  0  0  0  0  0
   -1.2869    1.8268   -0.0187 N   0  0  0  0  0  0
   -1.9886    2.2357    1.1029 N   0  0  0  0  0  0
   -4.0160    3.5355   -1.4545 C   0  0  0  0  0  0
   -2.0030    2.2888   -1.0689 C   0  0  0  0  0  0
   -3.7404    3.3942   -2.8418 C   0  0  0  0  0  0
   -5.1688    4.2361   -1.0195 C   0  0  0  0  0  0
   -4.6348    3.9638   -3.7786 C   0  0  0  0  0  0
   -5.7655    4.6505   -3.3340 C   0  0  0  0  0  0
   -6.0282    4.7843   -1.9702 C   0  0  0  0  0  0
   -5.3774    4.3429    0.0354 H   0  0  0  0  0  0
   -4.4354    3.8626   -4.8361 H   0  0  0  0  0  0
   -6.9081    5.3191   -1.6428 H   0  0  0  0  0  0
  1 13  1  0  0  0
  2  3  1  0  0  0
  2  8  1  0  0  0
  2  9  1  0  0  0
  3  7  2  0  0  0
  4  5  2  0  0  0
  4  9  1  0  0  0
  5 10  1  0  0  0
  6  7  1  0  0  0
  6  9  2  0  0  0
  8 10  2  0  0  0
  8 11  1  0  0  0
 10 12  1  0  0  0
 11 14  2  0  0  0
 11 15  1  0  0  0
 12 13  2  0  0  0
 12 16  1  0  0  0
 13 14  1  0  0  0
 14 17  1  0  0  0
M  END
> <chembl_id>
CHEMBL1986503

> <chembl_pref_name>
None

> <s_m_source_file>
sdf/inactives_sanitized.sdf

> <i_m_source_file_index>
180

> <i_lp_mmshare_version>
49012

> <i_m_ct_stereo_status>
1

> <i_f3d_flags>
0

> <s_epik_input>
W2NIXTFbY0hdYyhDbClbY0hdYyhjMW4yMylubmMzbm5uMg==

> <s_epik_cmdline>
J2VwaWtfcHl0aG9uJywgJy1waHQnLCAnMC41JywgJy1waCcsICc3LjUnLCAnLW50JywgJy1tYScsICcyMDAnLCAnLWltYWUnLCAnPGluZmlsZS5tYWU+JywgJy1vbWFlJywgJzxvdXRmaWxlLm1hZT4n

> <r_lp_tautomer_probability>
1

> <r_epik_Ionization_Penalty>
  0.0000

> <r_epik_Ionization_Penalty_Charging>
  0.0000

> <r_epik_Ionization_Penalty_Neutral>
  0.0000

> <r_epik_State_Penalty>
 -0.0000

> <r_epik_Charging_Adjusted_Penalty>
0

> <i_epik_Tot_Q>
0

> <i_epik_Tot_abs_Q>
0

> <s_lp_Force_Field>
OPLS3e

> <r_lp_Energy>
23.437971

> <b_lp_Chiralities_Consistent>
1

> <s_lp_Variant>
sdf/inactives_sanitized.sdf:180-1

$$$$
sdf/inactives_sanitized.sdf:181
                    3D
 Schrodinger Suite 2020-1.
 55 58  0  0  1  0            999 V2000
   -0.4813    3.3102    0.2719 C   0  0  0  0  0  0
    0.1230    2.0222    0.2138 O   0  0  0  0  0  0
   -0.6619    0.8894    0.3483 C   0  0  0  0  0  0
   -2.0511    0.9325    0.5453 C   0  0  0  0  0  0
   -2.8096   -0.2607    0.6758 C   0  0  0  0  0  0
   -4.2255   -0.3195    0.8799 C   0  0  0  0  0  0
   -4.9667    0.8771    0.9618 N   0  0  0  0  0  0
   -6.3240    1.2115    1.1509 C   0  0  0  0  0  0
   -7.3505    0.2691    1.3302 C   0  0  0  0  0  0
   -8.6713    0.6805    1.5095 C   0  0  0  0  0  0
   -8.9876    2.0369    1.5128 C   0  0  0  0  0  0
  -10.7903    2.5964    1.7593 Br  0  0  0  0  0  0
   -7.9806    2.9833    1.3367 C   0  0  0  0  0  0
   -6.6582    2.5753    1.1572 C   0  0  0  0  0  0
   -5.7022    3.5213    0.9893 F   0  0  0  0  0  0
   -4.8792   -1.5026    0.9959 N   0  0  0  0  0  0
   -4.1331   -2.6271    0.9101 C   0  0  0  0  0  0
   -2.7947   -2.6987    0.7190 N   0  0  0  0  0  0
   -2.1309   -1.5141    0.6016 C   0  0  0  0  0  0
   -0.7334   -1.5365    0.4019 C   0  0  0  0  0  0
   -0.0035   -0.3446    0.2776 C   0  0  0  0  0  0
    1.3670   -0.3089    0.0840 O   0  0  0  0  0  0
    2.1025   -1.5261   -0.0165 C   0  0  0  0  0  0
    3.5998   -1.2100   -0.2103 C   0  0  1  0  0  0
    4.4483   -2.4987   -0.2317 C   0  0  0  0  0  0
    5.9506   -2.1735   -0.3176 C   0  0  0  0  0  0
    6.1988   -1.3422   -1.5991 N   0  3  2  0  0  0
    7.6968   -1.0030   -1.7292 C   0  0  0  0  0  0
    5.3535   -0.0467   -1.6389 C   0  0  0  0  0  0
    3.8678   -0.4314   -1.5173 C   0  0  0  0  0  0
    0.2860    4.0737    0.1448 H   0  0  0  0  0  0
   -0.9617    3.4839    1.2358 H   0  0  0  0  0  0
   -1.2147    3.4448   -0.5245 H   0  0  0  0  0  0
   -2.5701    1.8770    0.6014 H   0  0  0  0  0  0
   -4.3840    1.6953    0.8588 H   0  0  0  0  0  0
   -7.1648   -0.7911    1.3376 H   0  0  0  0  0  0
   -9.4492   -0.0565    1.6465 H   0  0  0  0  0  0
   -8.2241    4.0357    1.3398 H   0  0  0  0  0  0
   -4.6600   -3.5654    1.0035 H   0  0  0  0  0  0
   -0.2477   -2.4996    0.3499 H   0  0  0  0  0  0
    1.9694   -2.1104    0.8961 H   0  0  0  0  0  0
    1.7336   -2.1229   -0.8534 H   0  0  0  0  0  0
    3.9335   -0.5969    0.6296 H   0  0  0  0  0  0
    4.2537   -3.0832    0.6689 H   0  0  0  0  0  0
    4.1418   -3.1488   -1.0531 H   0  0  0  0  0  0
    6.2986   -1.5794    0.5298 H   0  0  0  0  0  0
    6.5570   -3.0765   -0.4027 H   0  0  0  0  0  0
    7.9832   -0.3943   -0.8699 H   0  0  0  0  0  0
    7.8260   -0.4605   -2.6666 H   0  0  0  0  0  0
    8.2412   -1.9478   -1.7514 H   0  0  0  0  0  0
    5.6895    0.5877   -0.8163 H   0  0  0  0  0  0
    5.5693    0.4441   -2.5893 H   0  0  0  0  0  0
    3.5421   -1.0101   -2.3834 H   0  0  0  0  0  0
    3.2559    0.4713   -1.5444 H   0  0  0  0  0  0
    5.9242   -1.9091   -2.3894 H   0  0  0  0  0  0
  1  2  1  0  0  0
  1 31  1  0  0  0
  1 32  1  0  0  0
  1 33  1  0  0  0
  2  3  1  0  0  0
  3 21  2  0  0  0
  3  4  1  0  0  0
  4  5  2  0  0  0
  4 34  1  0  0  0
  5 19  1  0  0  0
  5  6  1  0  0  0
  6  7  1  0  0  0
  6 16  2  0  0  0
  7  8  1  0  0  0
  7 35  1  0  0  0
  8 14  1  0  0  0
  8  9  2  0  0  0
  9 10  1  0  0  0
  9 36  1  0  0  0
 10 11  2  0  0  0
 10 37  1  0  0  0
 11 12  1  0  0  0
 11 13  1  0  0  0
 13 14  2  0  0  0
 13 38  1  0  0  0
 14 15  1  0  0  0
 16 17  1  0  0  0
 17 18  2  0  0  0
 17 39  1  0  0  0
 18 19  1  0  0  0
 19 20  2  0  0  0
 20 21  1  0  0  0
 20 40  1  0  0  0
 21 22  1  0  0  0
 22 23  1  0  0  0
 23 24  1  0  0  0
 23 41  1  0  0  0
 23 42  1  0  0  0
 24 30  1  0  0  0
 24 25  1  0  0  0
 24 43  1  0  0  0
 25 26  1  0  0  0
 25 44  1  0  0  0
 25 45  1  0  0  0
 26 27  1  0  0  0
 26 46  1  0  0  0
 26 47  1  0  0  0
 27 28  1  0  0  0
 27 29  1  0  0  0
 27 55  1  0  0  0
 28 48  1  0  0  0
 28 49  1  0  0  0
 28 50  1  0  0  0
 29 30  1  0  0  0
 29 51  1  0  0  0
 29 52  1  0  0  0
 30 53  1  0  0  0
 30 54  1  0  0  0
M  CHG  1  27   1
M  END
> <chembl_id>
CHEMBL24828

> <chembl_pref_name>
VANDETANIB

> <s_m_source_file>
sdf/inactives_sanitized.sdf

> <i_m_source_file_index>
181

> <i_lp_mmshare_version>
49012

> <i_m_ct_stereo_status>
1

> <i_f3d_flags>
0

> <s_epik_input>
W0NIMl0xW0NIMl1OKFtDSDNdKVtDSDJdW0NIMl1bQ0hdMVtDSDJdT2MoYyhbY0hdMilPW0NIM10pW2NIXWMoYzIzKW5bY0hdbmMzW05IXWM0W2NIXVtjSF1jKEJyKVtjSF1jNEY=

> <s_epik_cmdline>
J2VwaWtfcHl0aG9uJywgJy1waHQnLCAnMC41JywgJy1waCcsICc3LjUnLCAnLW50JywgJy1tYScsICcyMDAnLCAnLWltYWUnLCAnPGluZmlsZS5tYWU+JywgJy1vbWFlJywgJzxvdXRmaWxlLm1hZT4n

> <r_lp_tautomer_probability>
1

> <r_epik_Ionization_Penalty>
  0.0056

> <r_epik_Ionization_Penalty_Charging>
  0.0049

> <r_epik_Ionization_Penalty_Neutral>
  0.0007

> <r_epik_State_Penalty>
 -0.0000

> <r_epik_Charging_Adjusted_Penalty>
0.00486685740380892

> <i_epik_Tot_Q>
1

> <i_epik_Tot_abs_Q>
1

> <s_lp_Force_Field>
OPLS3e

> <r_lp_Energy>
53.833063

> <b_lp_Chiralities_Consistent>
1

> <s_lp_Variant>
sdf/inactives_sanitized.sdf:181-1

$$$$
sdf/inactives_sanitized.sdf:182
                    3D
 Schrodinger Suite 2020-1.
 43 46  0  0  1  0            999 V2000
   -4.9395    0.0912    0.1405 C   0  0  0  0  0  0
   -5.0759   -1.1336    0.1199 O   0  0  0  0  0  0
   -5.9483    0.9868    0.1519 N   0  0  0  0  0  0
   -3.7534    0.7344    0.1586 N   0  0  0  0  0  0
   -2.4943    0.1511    0.1217 C   0  0  0  0  0  0
   -2.1940   -1.1251    0.1480 N   0  0  0  0  0  0
   -1.1300    1.2087    0.0301 S   0  0  0  0  0  0
   -0.8907   -1.3114    0.0956 C   0  0  0  0  0  0
   -0.0705   -0.1828    0.0262 C   0  0  0  0  0  0
    1.4380   -0.0776   -0.0605 C   0  0  0  0  0  0
    1.9422    0.7439   -1.2577 C   0  0  0  0  0  0
    1.8256    0.0395   -2.5253 N   0  0  0  0  0  0
    2.2264    0.5600   -3.7663 C   0  0  0  0  0  0
    2.7965    1.8369   -4.0003 C   0  0  0  0  0  0
    2.0267   -0.2830   -4.8091 N   0  0  0  0  0  0
    3.1371    2.1777   -5.3481 C   0  0  0  0  0  0
    3.2012    3.1738   -2.9182 S   0  0  0  0  0  0
    2.3844    0.1431   -6.0419 C   0  0  0  0  0  0
    3.7019    3.4753   -5.4750 C   0  0  0  0  0  0
    2.9334    1.3382   -6.3694 N   0  0  0  0  0  0
    3.7940    4.1188   -4.2618 C   0  0  0  0  0  0
   -7.3375    0.7670    0.0857 C   0  0  0  0  0  0
   -8.1517    1.8574    0.4103 C   0  0  0  0  0  0
   -7.9404   -0.4426   -0.3037 C   0  0  0  0  0  0
   -9.5412    1.7438    0.3655 C   0  0  0  0  0  0
   -9.3315   -0.5531   -0.3483 C   0  0  0  0  0  0
  -10.1311    0.5387   -0.0118 C   0  0  0  0  0  0
  -10.0639   -2.0414   -0.8258 Cl  0  0  0  0  0  0
   -5.6857    1.9553    0.2606 H   0  0  0  0  0  0
   -3.7702    1.7436    0.1697 H   0  0  0  0  0  0
   -0.5218   -2.3265    0.1042 H   0  0  0  0  0  0
    1.7115    0.5080    0.8180 H   0  0  0  0  0  0
    2.0143   -0.9911    0.0913 H   0  0  0  0  0  0
    1.4819    1.7320   -1.2749 H   0  0  0  0  0  0
    2.9968    0.9688   -1.0931 H   0  0  0  0  0  0
    2.2129   -0.5459   -6.8560 H   0  0  0  0  0  0
    4.0211    3.9055   -6.4127 H   0  0  0  0  0  0
    4.1838    5.1102   -4.0825 H   0  0  0  0  0  0
   -7.7129    2.8008    0.7036 H   0  0  0  0  0  0
   -7.3561   -1.3032   -0.5885 H   0  0  0  0  0  0
  -10.1610    2.5904    0.6222 H   0  0  0  0  0  0
  -11.2076    0.4553   -0.0468 H   0  0  0  0  0  0
    1.4617   -0.9023   -2.5036 H   0  0  0  0  0  0
  1  2  2  0  0  0
  1  3  1  0  0  0
  1  4  1  0  0  0
  3 22  1  0  0  0
  3 29  1  0  0  0
  4  5  1  0  0  0
  4 30  1  0  0  0
  5  6  2  0  0  0
  5  7  1  0  0  0
  6  8  1  0  0  0
  7  9  1  0  0  0
  8  9  2  0  0  0
  8 31  1  0  0  0
  9 10  1  0  0  0
 10 11  1  0  0  0
 10 32  1  0  0  0
 10 33  1  0  0  0
 11 12  1  0  0  0
 11 34  1  0  0  0
 11 35  1  0  0  0
 12 13  1  0  0  0
 12 43  1  0  0  0
 13 14  1  0  0  0
 13 15  2  0  0  0
 14 16  2  0  0  0
 14 17  1  0  0  0
 15 18  1  0  0  0
 16 19  1  0  0  0
 16 20  1  0  0  0
 17 21  1  0  0  0
 18 20  2  0  0  0
 18 36  1  0  0  0
 19 21  2  0  0  0
 19 37  1  0  0  0
 21 38  1  0  0  0
 22 23  2  0  0  0
 22 24  1  0  0  0
 23 25  1  0  0  0
 23 39  1  0  0  0
 24 26  2  0  0  0
 24 40  1  0  0  0
 25 27  2  0  0  0
 25 41  1  0  0  0
 26 27  1  0  0  0
 26 28  1  0  0  0
 27 42  1  0  0  0
M  END
> <chembl_id>
CHEMBL482767

> <chembl_pref_name>
SNS-314

> <s_m_source_file>
sdf/inactives_sanitized.sdf

> <i_m_source_file_index>
182

> <i_lp_mmshare_version>
49012

> <i_m_ct_stereo_status>
1

> <i_f3d_flags>
0

> <s_epik_input>
W2NIXTFjKENsKVtjSF1bY0hdW2NIXWMxW05IXUMoPU8pW05IXWMybltjSF1jKHMyKVtDSDJdW0NIMl0vTj1jXDNbbkhdW2NIXW5jKGMzNClbY0hdW2NIXXM0

> <s_epik_cmdline>
J2VwaWtfcHl0aG9uJywgJy1waHQnLCAnMC41JywgJy1waCcsICc3LjUnLCAnLW50JywgJy1tYScsICcyMDAnLCAnLWltYWUnLCAnPGluZmlsZS5tYWU+JywgJy1vbWFlJywgJzxvdXRmaWxlLm1hZT4n

> <r_lp_tautomer_probability>
1

> <r_epik_Ionization_Penalty>
  0.0021

> <r_epik_Ionization_Penalty_Charging>
  0.0000

> <r_epik_Ionization_Penalty_Neutral>
  0.0021

> <r_epik_State_Penalty>
 -0.0000

> <r_epik_Charging_Adjusted_Penalty>
0

> <i_epik_Tot_Q>
0

> <i_epik_Tot_abs_Q>
0

> <s_lp_Force_Field>
OPLS3e

> <r_lp_Energy>
22.311883

> <b_lp_Chiralities_Consistent>
1

> <s_lp_Variant>
sdf/inactives_sanitized.sdf:182-1

$$$$
sdf/inactives_sanitized.sdf:183
                    3D
 Schrodinger Suite 2020-1.
 45 48  0  0  1  0            999 V2000
   -1.6414   -3.6248    7.6141 O   0  0  0  0  0  0
    0.2816    0.0265    0.3428 O   0  0  0  0  0  0
    0.2772   -6.1099    2.7819 N   0  0  0  0  0  0
   -0.0689   -6.3287    4.0562 N   0  0  0  0  0  0
   -0.9423   -5.0157    5.9691 N   0  0  0  0  0  0
   -0.4524   -4.1884    3.7156 C   0  0  0  0  0  0
    0.0740   -4.8191    2.5630 C   0  0  0  0  0  0
   -0.5037   -5.1929    4.6689 C   0  0  0  0  0  0
    0.3965   -4.2342    1.2285 C   0  0  0  0  0  0
   -0.9537   -2.8670    4.1390 C   0  0  0  0  0  0
    1.4559   -2.4931   -0.1055 C   0  0  0  0  0  0
    1.1296   -3.0466    1.1371 C   0  0  0  0  0  0
   -1.3634   -3.8089    6.4315 C   0  0  0  0  0  0
   -1.4066   -2.7551    5.4190 C   0  0  0  0  0  0
    2.2383   -1.2364   -0.1850 C   0  0  0  0  0  0
    0.0006   -4.8799    0.0513 C   0  0  0  0  0  0
    1.0502   -3.1528   -1.2695 C   0  0  0  0  0  0
    1.6344    0.0132    0.0452 C   0  0  0  0  0  0
    0.3244   -4.3404   -1.1927 C   0  0  0  0  0  0
   -1.0771   -1.7124    3.1612 C   0  0  0  0  0  0
    3.5959   -1.2986   -0.5191 C   0  0  0  0  0  0
    2.4207    1.1766   -0.0442 C   0  0  0  0  0  0
    4.3617   -0.1388   -0.6075 C   0  0  0  0  0  0
    3.7740    1.0992   -0.3669 C   0  0  0  0  0  0
   -0.4004    1.2721    0.4616 C   0  0  0  0  0  0
   -1.9010    1.0064    0.6122 C   0  0  0  0  0  0
   -0.0043   -7.2391    4.4885 H   0  0  0  0  0  0
    1.4674   -2.5566    2.0386 H   0  0  0  0  0  0
   -1.8183   -1.8084    5.7384 H   0  0  0  0  0  0
   -0.5604   -5.8022    0.0972 H   0  0  0  0  0  0
    1.2976   -2.7436   -2.2384 H   0  0  0  0  0  0
    0.0151   -4.8437   -2.0967 H   0  0  0  0  0  0
   -1.7356   -0.9321    3.5450 H   0  0  0  0  0  0
   -1.4887   -2.0535    2.2108 H   0  0  0  0  0  0
   -0.1048   -1.2572    2.9787 H   0  0  0  0  0  0
    4.0638   -2.2545   -0.7069 H   0  0  0  0  0  0
    1.9991    2.1542    0.1328 H   0  0  0  0  0  0
    5.4098   -0.2003   -0.8612 H   0  0  0  0  0  0
    4.3660    2.0001   -0.4336 H   0  0  0  0  0  0
   -0.0317    1.8235    1.3282 H   0  0  0  0  0  0
   -0.2369    1.8857   -0.4262 H   0  0  0  0  0  0
   -2.4576    1.9414    0.6798 H   0  0  0  0  0  0
   -2.1120    0.4305    1.5122 H   0  0  0  0  0  0
   -2.2888    0.4485   -0.2407 H   0  0  0  0  0  0
   -0.8437   -5.7421    6.6631 H   0  0  0  0  0  0
  1 13  2  0  0  0
  2 18  1  0  0  0
  2 25  1  0  0  0
  3  4  1  0  0  0
  3  7  2  0  0  0
  4  8  1  0  0  0
  4 27  1  0  0  0
  5  8  1  0  0  0
  5 13  1  0  0  0
  5 45  1  0  0  0
  6  7  1  0  0  0
  6  8  2  0  0  0
  6 10  1  0  0  0
  7  9  1  0  0  0
  9 12  2  0  0  0
  9 16  1  0  0  0
 10 14  2  0  0  0
 10 20  1  0  0  0
 11 12  1  0  0  0
 11 15  1  0  0  0
 11 17  2  0  0  0
 12 28  1  0  0  0
 13 14  1  0  0  0
 14 29  1  0  0  0
 15 18  2  0  0  0
 15 21  1  0  0  0
 16 19  2  0  0  0
 16 30  1  0  0  0
 17 19  1  0  0  0
 17 31  1  0  0  0
 18 22  1  0  0  0
 19 32  1  0  0  0
 20 33  1  0  0  0
 20 34  1  0  0  0
 20 35  1  0  0  0
 21 23  2  0  0  0
 21 36  1  0  0  0
 22 24  2  0  0  0
 22 37  1  0  0  0
 23 24  1  0  0  0
 23 38  1  0  0  0
 24 39  1  0  0  0
 25 26  1  0  0  0
 25 40  1  0  0  0
 25 41  1  0  0  0
 26 42  1  0  0  0
 26 43  1  0  0  0
 26 44  1  0  0  0
M  END
> <chembl_id>
CHEMBL1983070

> <chembl_pref_name>
None

> <s_m_source_file>
sdf/inactives_sanitized.sdf

> <i_m_source_file_index>
183

> <i_lp_mmshare_version>
49012

> <i_m_ct_stereo_status>
1

> <i_f3d_flags>
0

> <s_epik_input>
W0NIM11jMVtjSF1jKFtPSF0pbmMoYzEyKVtuSF1uYzItYzNbY0hdYyhbY0hdW2NIXVtjSF0zKS1jNGMoT1tDSDJdW0NIM10pW2NIXVtjSF1bY0hdW2NIXTQ=

> <s_epik_cmdline>
J2VwaWtfcHl0aG9uJywgJy1waHQnLCAnMC41JywgJy1waCcsICc3LjUnLCAnLW50JywgJy1tYScsICcyMDAnLCAnLWltYWUnLCAnPGluZmlsZS5tYWU+JywgJy1vbWFlJywgJzxvdXRmaWxlLm1hZT4n

> <r_lp_tautomer_probability>
1

> <r_epik_Ionization_Penalty>
  0.0001

> <r_epik_Ionization_Penalty_Charging>
  0.0000

> <r_epik_Ionization_Penalty_Neutral>
  0.0001

> <r_epik_State_Penalty>
 -0.0000

> <r_epik_Charging_Adjusted_Penalty>
3.43049996927489e-09

> <i_epik_Tot_Q>
0

> <i_epik_Tot_abs_Q>
0

> <s_lp_Force_Field>
OPLS3e

> <r_lp_Energy>
43.411328

> <b_lp_Chiralities_Consistent>
1

> <s_lp_Variant>
sdf/inactives_sanitized.sdf:183-1

$$$$
sdf/inactives_sanitized.sdf:184
                    3D
 Schrodinger Suite 2020-1.
 27 29  0  0  1  0            999 V2000
   -2.6284    2.4360    0.0001 O   0  0  0  0  0  0
    4.2809    0.0001   -2.4007 O   0  0  0  0  0  0
   -1.5544    3.3365   -0.0004 N   0  0  0  0  0  0
    0.7912    3.1932   -0.0015 N   0  0  0  0  0  0
   -0.7138    1.2184   -0.0014 C   0  0  0  0  0  0
    0.0150    0.0098   -0.0019 C   0  0  0  0  0  0
   -2.1190    1.1711   -0.0004 C   0  0  0  0  0  0
   -0.4497    2.6249   -0.0012 C   0  0  0  0  0  0
    1.4943   -0.0018   -0.0036 C   0  0  0  0  0  0
   -0.7108   -1.1893   -0.0014 C   0  0  0  0  0  0
   -2.8462   -0.0231    0.0002 C   0  0  0  0  0  0
   -2.1073   -1.2060   -0.0002 C   0  0  0  0  0  0
    2.2017   -0.0030   -1.2107 C   0  0  0  0  0  0
    2.2048   -0.0030    1.2016 C   0  0  0  0  0  0
    3.5977   -0.0018   -1.2138 C   0  0  0  0  0  0
    3.5999   -0.0022    1.2013 C   0  0  0  0  0  0
    4.2968   -0.0010   -0.0065 C   0  0  0  0  0  0
    3.7014    0.0002   -3.1658 H   0  0  0  0  0  0
    1.6300    2.6310    0.0010 H   0  0  0  0  0  0
    0.9125    4.1956   -0.0001 H   0  0  0  0  0  0
   -0.1807   -2.1309   -0.0015 H   0  0  0  0  0  0
   -3.9262   -0.0313    0.0010 H   0  0  0  0  0  0
   -2.6253   -2.1537    0.0006 H   0  0  0  0  0  0
    1.6631   -0.0016   -2.1478 H   0  0  0  0  0  0
    1.6748   -0.0015    2.1432 H   0  0  0  0  0  0
    4.1405   -0.0015    2.1363 H   0  0  0  0  0  0
    5.3773    0.0012   -0.0024 H   0  0  0  0  0  0
  1  3  1  0  0  0
  1  7  1  0  0  0
  2 15  1  0  0  0
  2 18  1  0  0  0
  3  8  2  0  0  0
  4  8  1  0  0  0
  4 19  1  0  0  0
  4 20  1  0  0  0
  5  6  1  0  0  0
  5  7  2  0  0  0
  5  8  1  0  0  0
  6  9  1  0  0  0
  6 10  2  0  0  0
  7 11  1  0  0  0
  9 13  2  0  0  0
  9 14  1  0  0  0
 10 12  1  0  0  0
 10 21  1  0  0  0
 11 12  2  0  0  0
 11 22  1  0  0  0
 12 23  1  0  0  0
 13 15  1  0  0  0
 13 24  1  0  0  0
 14 16  2  0  0  0
 14 25  1  0  0  0
 15 17  2  0  0  0
 16 17  1  0  0  0
 16 26  1  0  0  0
 17 27  1  0  0  0
M  END
> <chembl_id>
CHEMBL1970340

> <chembl_pref_name>
None

> <s_m_source_file>
sdf/inactives_sanitized.sdf

> <i_m_source_file_index>
184

> <i_lp_mmshare_version>
49012

> <i_m_ct_stereo_status>
1

> <i_f3d_flags>
0

> <s_epik_input>
W05IMl1jMW5vYyhjMTIpW2NIXVtjSF1bY0hdYzItYzNbY0hdYyhbT0hdKVtjSF1bY0hdW2NIXTM=

> <s_epik_cmdline>
J2VwaWtfcHl0aG9uJywgJy1waHQnLCAnMC41JywgJy1waCcsICc3LjUnLCAnLW50JywgJy1tYScsICcyMDAnLCAnLWltYWUnLCAnPGluZmlsZS5tYWU+JywgJy1vbWFlJywgJzxvdXRmaWxlLm1hZT4n

> <r_lp_tautomer_probability>
1

> <r_epik_Ionization_Penalty>
  0.0045

> <r_epik_Ionization_Penalty_Charging>
  0.0000

> <r_epik_Ionization_Penalty_Neutral>
  0.0045

> <r_epik_State_Penalty>
 -0.0000

> <r_epik_Charging_Adjusted_Penalty>
0

> <i_epik_Tot_Q>
0

> <i_epik_Tot_abs_Q>
0

> <s_lp_Force_Field>
OPLS3e

> <r_lp_Energy>
19.412153

> <b_lp_Chiralities_Consistent>
1

> <s_lp_Variant>
sdf/inactives_sanitized.sdf:184-1

$$$$
sdf/inactives_sanitized.sdf:185
                    3D
 Schrodinger Suite 2020-1.
 63 67  0  0  1  0            999 V2000
   10.0477   -0.9473   -0.7459 F   0  0  0  0  0  0
   -2.2251   -0.8821   -0.0429 O   0  0  0  0  0  0
    6.1706   -1.3801    2.2611 O   0  0  0  0  0  0
   -8.0722   -4.3399   -0.0757 O   0  0  0  0  0  0
   -1.8420    3.2156    0.1109 N   0  0  0  0  0  0
    0.4771    3.0005    0.3101 N   0  0  0  0  0  0
    5.6373   -0.4106    0.2557 N   0  0  0  0  0  0
    7.7632   -0.7457    0.7413 N   0  0  0  0  0  0
   -7.2178   -1.6170    0.0970 N   0  0  0  0  0  0
   -0.9006    0.9854    0.0857 C   0  0  0  0  0  0
   -2.2225    0.4821   -0.0130 C   0  0  0  0  0  0
   -0.0477   -0.1790    0.0892 C   0  0  0  0  0  0
   -0.7657    2.3890    0.1600 C   0  0  0  0  0  0
   -3.3505    1.3171   -0.0618 C   0  0  0  0  0  0
    1.4387   -0.2586    0.1382 C   0  0  0  0  0  0
   -0.9206   -1.2601    0.0325 C   0  0  0  0  0  0
   -3.0872    2.6871   -0.0002 C   0  0  0  0  0  0
    2.2231    0.5458   -0.6907 C   0  0  0  0  0  0
    2.0526   -1.1426    1.0281 C   0  0  0  0  0  0
   -4.7090    0.8065   -0.1683 C   0  0  0  0  0  0
    4.2296   -0.4011    0.2713 C   0  0  0  0  0  0
    3.6115    0.4708   -0.6277 C   0  0  0  0  0  0
    3.4411   -1.2193    1.0954 C   0  0  0  0  0  0
   -5.8374    0.3484   -0.2609 C   0  0  0  0  0  0
    6.4957   -0.8892    1.1794 C   0  0  0  0  0  0
    8.9757   -1.0463    1.3952 C   0  0  0  0  0  0
   10.1224   -1.1389    0.5934 C   0  0  0  0  0  0
   -7.1891   -0.2316   -0.3862 C   0  0  0  0  0  0
    9.0967   -1.2452    2.7825 C   0  0  0  0  0  0
   10.3392   -1.5357    3.3535 C   0  0  0  0  0  0
   11.3601   -1.4344    1.1646 C   0  0  0  0  0  0
   11.4687   -1.6361    2.5390 C   0  0  0  0  0  0
   -6.5880   -2.5686   -0.8355 C   0  0  0  0  0  0
   -8.5914   -2.0182    0.4287 C   0  0  0  0  0  0
   10.4565   -1.7612    4.8502 C   0  0  0  0  0  0
   -6.7083   -4.0220   -0.3293 C   0  0  0  0  0  0
   -8.6539   -3.4859    0.9030 C   0  0  0  0  0  0
    1.3062    2.4293    0.3905 H   0  0  0  0  0  0
    0.5265    4.0067    0.3798 H   0  0  0  0  0  0
    6.0490    0.0539   -0.5402 H   0  0  0  0  0  0
    7.8743   -0.4329   -0.2121 H   0  0  0  0  0  0
   -0.7535   -2.3272    0.0146 H   0  0  0  0  0  0
   -3.8938    3.4062   -0.0323 H   0  0  0  0  0  0
    1.7606    1.2222   -1.3949 H   0  0  0  0  0  0
    1.4565   -1.7732    1.6718 H   0  0  0  0  0  0
    4.2019    1.0984   -1.2803 H   0  0  0  0  0  0
    3.8754   -1.9280    1.7826 H   0  0  0  0  0  0
   -7.5161   -0.1652   -1.4250 H   0  0  0  0  0  0
   -7.8559    0.3979    0.2053 H   0  0  0  0  0  0
    8.2450   -1.1609    3.4390 H   0  0  0  0  0  0
   12.2385   -1.5080    0.5405 H   0  0  0  0  0  0
   12.4332   -1.8648    2.9687 H   0  0  0  0  0  0
   -7.0524   -2.4789   -1.8191 H   0  0  0  0  0  0
   -5.5373   -2.3120   -0.9752 H   0  0  0  0  0  0
   -8.9837   -1.3608    1.2059 H   0  0  0  0  0  0
   -9.2376   -1.8784   -0.4400 H   0  0  0  0  0  0
   11.2735   -2.4459    5.0819 H   0  0  0  0  0  0
    9.5472   -2.2145    5.2472 H   0  0  0  0  0  0
   10.6301   -0.8177    5.3680 H   0  0  0  0  0  0
   -6.1064   -4.1751    0.5687 H   0  0  0  0  0  0
   -6.3241   -4.7110   -1.0816 H   0  0  0  0  0  0
   -9.6914   -3.7847    1.0538 H   0  0  0  0  0  0
   -8.1517   -3.6090    1.8647 H   0  0  0  0  0  0
  1 27  1  0  0  0
  2 11  1  0  0  0
  2 16  1  0  0  0
  3 25  2  0  0  0
  4 36  1  0  0  0
  4 37  1  0  0  0
  5 13  2  0  0  0
  5 17  1  0  0  0
  6 13  1  0  0  0
  6 38  1  0  0  0
  6 39  1  0  0  0
  7 21  1  0  0  0
  7 25  1  0  0  0
  7 40  1  0  0  0
  8 25  1  0  0  0
  8 26  1  0  0  0
  8 41  1  0  0  0
  9 28  1  0  0  0
  9 33  1  0  0  0
  9 34  1  0  0  0
 10 11  2  0  0  0
 10 12  1  0  0  0
 10 13  1  0  0  0
 11 14  1  0  0  0
 12 15  1  0  0  0
 12 16  2  0  0  0
 14 17  2  0  0  0
 14 20  1  0  0  0
 15 18  2  0  0  0
 15 19  1  0  0  0
 16 42  1  0  0  0
 17 43  1  0  0  0
 18 22  1  0  0  0
 18 44  1  0  0  0
 19 23  2  0  0  0
 19 45  1  0  0  0
 20 24  3  0  0  0
 21 22  2  0  0  0
 21 23  1  0  0  0
 22 46  1  0  0  0
 23 47  1  0  0  0
 24 28  1  0  0  0
 26 27  2  0  0  0
 26 29  1  0  0  0
 27 31  1  0  0  0
 28 48  1  0  0  0
 28 49  1  0  0  0
 29 30  2  0  0  0
 29 50  1  0  0  0
 30 32  1  0  0  0
 30 35  1  0  0  0
 31 32  2  0  0  0
 31 51  1  0  0  0
 32 52  1  0  0  0
 33 36  1  0  0  0
 33 53  1  0  0  0
 33 54  1  0  0  0
 34 37  1  0  0  0
 34 55  1  0  0  0
 34 56  1  0  0  0
 35 57  1  0  0  0
 35 58  1  0  0  0
 35 59  1  0  0  0
 36 60  1  0  0  0
 36 61  1  0  0  0
 37 62  1  0  0  0
 37 63  1  0  0  0
M  END
> <chembl_id>
CHEMBL1983640

> <chembl_pref_name>
None

> <s_m_source_file>
sdf/inactives_sanitized.sdf

> <i_m_source_file_index>
185

> <i_lp_mmshare_version>
49012

> <i_m_ct_stereo_status>
1

> <i_f3d_flags>
0

> <s_epik_input>
W2NIXTFjKFtDSDNdKVtjSF1bY0hdYyhGKWMxW05IXUMoPU8pW05IXWMoW2NIXVtjSF0yKVtjSF1bY0hdYzItYzNbY0hdb2MoYzM0KWMoW2NIXW5jNFtOSDJdKUMjQ1tDSDJdTjVbQ0gyXVtDSDJdT1tDSDJdW0NIMl01

> <s_epik_cmdline>
J2VwaWtfcHl0aG9uJywgJy1waHQnLCAnMC41JywgJy1waCcsICc3LjUnLCAnLW50JywgJy1tYScsICcyMDAnLCAnLWltYWUnLCAnPGluZmlsZS5tYWU+JywgJy1vbWFlJywgJzxvdXRmaWxlLm1hZT4n

> <r_lp_tautomer_probability>
1

> <r_epik_Ionization_Penalty>
  0.0021

> <r_epik_Ionization_Penalty_Charging>
  0.0000

> <r_epik_Ionization_Penalty_Neutral>
  0.0021

> <r_epik_State_Penalty>
 -0.0000

> <r_epik_Charging_Adjusted_Penalty>
0

> <i_epik_Tot_Q>
0

> <i_epik_Tot_abs_Q>
0

> <s_lp_Force_Field>
OPLS3e

> <r_lp_Energy>
45.563089

> <b_lp_Chiralities_Consistent>
1

> <s_lp_Variant>
sdf/inactives_sanitized.sdf:185-1

$$$$
sdf/inactives_sanitized.sdf:186
                    3D
 Schrodinger Suite 2020-1.
 32 34  0  0  1  0            999 V2000
    6.2462    2.2023    0.4012 O   0  0  0  0  0  0
   -0.0086    0.0171    0.0255 N   0  0  0  0  0  0
   -0.6885   -1.1564    0.0626 N   0  0  0  0  0  0
   -0.7305    1.1650   -0.0232 N   0  0  0  0  0  0
   -3.0749   -1.4893    0.0449 N   0  0  0  0  0  0
    5.6155    0.0356   -0.0136 N   0  0  0  0  0  0
   -5.4159   -1.6181    0.0147 N   0  0  0  0  0  0
   -1.9776   -0.7268    0.0322 C   0  0  0  0  0  0
   -2.0037    0.6889   -0.0192 C   0  0  0  0  0  0
    1.4088    0.0436    0.0296 C   0  0  0  0  0  0
   -3.2381    1.3543   -0.0579 C   0  0  0  0  0  0
   -4.2657   -0.8325    0.0046 C   0  0  0  0  0  0
    2.1351   -0.9754   -0.5996 C   0  0  0  0  0  0
    2.0927    1.0879    0.6649 C   0  0  0  0  0  0
   -4.3870    0.5602   -0.0462 C   0  0  0  0  0  0
    4.2098    0.1013    0.0248 C   0  0  0  0  0  0
    3.5268   -0.9461   -0.5966 C   0  0  0  0  0  0
    3.4845    1.1168    0.6667 C   0  0  0  0  0  0
    6.5161    1.0216    0.1845 C   0  0  0  0  0  0
    7.9815    0.6056    0.0977 C   0  0  0  0  0  0
    5.9864   -0.8643   -0.2812 H   0  0  0  0  0  0
   -6.3230   -1.1762   -0.0174 H   0  0  0  0  0  0
   -5.3252   -2.6234    0.0459 H   0  0  0  0  0  0
   -3.3013    2.4320   -0.0969 H   0  0  0  0  0  0
    1.6297   -1.7917   -1.0959 H   0  0  0  0  0  0
    1.5538    1.8781    1.1677 H   0  0  0  0  0  0
   -5.3605    1.0279   -0.0770 H   0  0  0  0  0  0
    4.0689   -1.7420   -1.0874 H   0  0  0  0  0  0
    3.9736    1.9265    1.1851 H   0  0  0  0  0  0
    8.0879   -0.4663   -0.0734 H   0  0  0  0  0  0
    8.4978    0.8546    1.0251 H   0  0  0  0  0  0
    8.4741    1.1323   -0.7199 H   0  0  0  0  0  0
  1 19  2  0  0  0
  2  3  1  0  0  0
  2  4  1  0  0  0
  2 10  1  0  0  0
  3  8  2  0  0  0
  4  9  2  0  0  0
  5  8  1  0  0  0
  5 12  2  0  0  0
  6 16  1  0  0  0
  6 19  1  0  0  0
  6 21  1  0  0  0
  7 12  1  0  0  0
  7 22  1  0  0  0
  7 23  1  0  0  0
  8  9  1  0  0  0
  9 11  1  0  0  0
 10 13  2  0  0  0
 10 14  1  0  0  0
 11 15  2  0  0  0
 11 24  1  0  0  0
 12 15  1  0  0  0
 13 17  1  0  0  0
 13 25  1  0  0  0
 14 18  2  0  0  0
 14 26  1  0  0  0
 15 27  1  0  0  0
 16 17  2  0  0  0
 16 18  1  0  0  0
 17 28  1  0  0  0
 18 29  1  0  0  0
 19 20  1  0  0  0
 20 30  1  0  0  0
 20 31  1  0  0  0
 20 32  1  0  0  0
M  END
> <chembl_id>
CHEMBL2002723

> <chembl_pref_name>
None

> <s_m_source_file>
sdf/inactives_sanitized.sdf

> <i_m_source_file_index>
186

> <i_lp_mmshare_version>
49012

> <i_m_ct_stereo_status>
1

> <i_f3d_flags>
0

> <s_epik_input>
Tz1DKFtDSDNdKVtOSF1jKFtjSF1bY0hdMSlbY0hdW2NIXWMxLW4objIpbmMoYzIzKVtjSF1bY0hdYyhuMylbTkgyXQ==

> <s_epik_cmdline>
J2VwaWtfcHl0aG9uJywgJy1waHQnLCAnMC41JywgJy1waCcsICc3LjUnLCAnLW50JywgJy1tYScsICcyMDAnLCAnLWltYWUnLCAnPGluZmlsZS5tYWU+JywgJy1vbWFlJywgJzxvdXRmaWxlLm1hZT4n

> <r_lp_tautomer_probability>
1

> <r_epik_Ionization_Penalty>
  0.0000

> <r_epik_Ionization_Penalty_Charging>
  0.0000

> <r_epik_Ionization_Penalty_Neutral>
  0.0000

> <r_epik_State_Penalty>
 -0.0000

> <r_epik_Charging_Adjusted_Penalty>
0

> <i_epik_Tot_Q>
0

> <i_epik_Tot_abs_Q>
0

> <s_lp_Force_Field>
OPLS3e

> <r_lp_Energy>
24.301515

> <b_lp_Chiralities_Consistent>
1

> <s_lp_Variant>
sdf/inactives_sanitized.sdf:186-1

$$$$
sdf/inactives_sanitized.sdf:187
                    3D
 Schrodinger Suite 2020-1.
 40 42  0  0  1  0            999 V2000
   -2.0541    3.7923   -5.2215 Cl  0  0  0  0  0  0
    0.1491    0.2318   -0.0123 O   0  0  0  0  0  0
   -2.8978    4.6898   -0.0233 O   0  0  0  0  0  0
   -0.0038    1.6649   -0.0529 N   0  0  0  0  0  0
   -0.3487    1.8131    2.4399 N   0  0  0  0  0  0
   -1.0868    2.5459    3.2858 N   0  0  0  0  0  0
   -0.5484    2.1588    1.1152 C   0  0  0  0  0  0
   -1.5190    3.1555    1.1793 C   0  0  0  0  0  0
   -0.5022    2.1686   -1.2710 C   0  0  0  0  0  0
   -1.4905    3.1949   -1.2846 C   0  0  0  0  0  0
   -2.0613    3.7854   -0.0209 C   0  0  0  0  0  0
   -1.8025    3.3567    2.5421 C   0  0  0  0  0  0
   -1.9529    3.6804   -2.5189 C   0  0  0  0  0  0
   -0.0256    1.6802   -2.4998 C   0  0  0  0  0  0
   -1.4641    3.1765   -3.7207 C   0  0  0  0  0  0
   -0.5003    2.1760   -3.7101 C   0  0  0  0  0  0
    0.5667    0.8360    3.0168 C   0  0  0  0  0  0
   -2.7619    4.3142    3.2184 C   0  0  0  0  0  0
    1.5346   -0.1176   -0.0737 C   0  0  0  0  0  0
    1.7051   -1.6525   -0.0408 C   0  0  0  0  0  0
    3.1901   -2.0415    0.0738 C   0  0  0  0  0  0
    1.0488   -2.3455   -1.2519 C   0  0  0  0  0  0
   -2.7025    4.4589   -2.5587 H   0  0  0  0  0  0
    0.7181    0.9015   -2.5415 H   0  0  0  0  0  0
   -0.1173    1.7802   -4.6394 H   0  0  0  0  0  0
    0.3832   -0.1453    2.5803 H   0  0  0  0  0  0
    0.4264    0.7576    4.0968 H   0  0  0  0  0  0
    1.5928    1.1479    2.8237 H   0  0  0  0  0  0
   -3.3214    4.9258    2.5122 H   0  0  0  0  0  0
   -2.2384    5.0028    3.8824 H   0  0  0  0  0  0
   -3.4975    3.7834    3.8236 H   0  0  0  0  0  0
    2.0145    0.2853   -0.9659 H   0  0  0  0  0  0
    2.0637    0.3235    0.7705 H   0  0  0  0  0  0
    1.2110   -2.0234    0.8593 H   0  0  0  0  0  0
    3.7570   -1.7168   -0.7995 H   0  0  0  0  0  0
    3.3104   -3.1217    0.1638 H   0  0  0  0  0  0
    3.6508   -1.5909    0.9537 H   0  0  0  0  0  0
    1.4888   -2.0073   -2.1911 H   0  0  0  0  0  0
   -0.0219   -2.1439   -1.2974 H   0  0  0  0  0  0
    1.1693   -3.4282   -1.2006 H   0  0  0  0  0  0
  1 15  1  0  0  0
  2  4  1  0  0  0
  2 19  1  0  0  0
  3 11  2  0  0  0
  4  7  1  0  0  0
  4  9  1  0  0  0
  5  6  1  0  0  0
  5  7  1  0  0  0
  5 17  1  0  0  0
  6 12  2  0  0  0
  7  8  2  0  0  0
  8 11  1  0  0  0
  8 12  1  0  0  0
  9 10  1  0  0  0
  9 14  2  0  0  0
 10 11  1  0  0  0
 10 13  2  0  0  0
 12 18  1  0  0  0
 13 15  1  0  0  0
 13 23  1  0  0  0
 14 16  1  0  0  0
 14 24  1  0  0  0
 15 16  2  0  0  0
 16 25  1  0  0  0
 17 26  1  0  0  0
 17 27  1  0  0  0
 17 28  1  0  0  0
 18 29  1  0  0  0
 18 30  1  0  0  0
 18 31  1  0  0  0
 19 20  1  0  0  0
 19 32  1  0  0  0
 19 33  1  0  0  0
 20 21  1  0  0  0
 20 22  1  0  0  0
 20 34  1  0  0  0
 21 35  1  0  0  0
 21 36  1  0  0  0
 21 37  1  0  0  0
 22 38  1  0  0  0
 22 39  1  0  0  0
 22 40  1  0  0  0
M  END
> <chembl_id>
CHEMBL1977814

> <chembl_pref_name>
None

> <s_m_source_file>
sdf/inactives_sanitized.sdf

> <i_m_source_file_index>
187

> <i_lp_mmshare_version>
49012

> <i_m_ct_stereo_status>
1

> <i_f3d_flags>
0

> <s_epik_input>
W0NIM11bQ0hdKFtDSDNdKVtDSDJdT24xYyhbY0hdW2NIXWMoQ2wpW2NIXTIpYzJjKD1PKWMoYzEzKWMoW0NIM10pbm4zW0NIM10=

> <s_epik_cmdline>
J2VwaWtfcHl0aG9uJywgJy1waHQnLCAnMC41JywgJy1waCcsICc3LjUnLCAnLW50JywgJy1tYScsICcyMDAnLCAnLWltYWUnLCAnPGluZmlsZS5tYWU+JywgJy1vbWFlJywgJzxvdXRmaWxlLm1hZT4n

> <r_lp_tautomer_probability>
1

> <r_epik_Ionization_Penalty>
  0.0000

> <r_epik_Ionization_Penalty_Charging>
  0.0000

> <r_epik_Ionization_Penalty_Neutral>
  0.0000

> <r_epik_State_Penalty>
 -0.0000

> <r_epik_Charging_Adjusted_Penalty>
4.35847449202273e-09

> <i_epik_Tot_Q>
0

> <i_epik_Tot_abs_Q>
0

> <s_lp_Force_Field>
OPLS3e

> <r_lp_Energy>
18.91488

> <b_lp_Chiralities_Consistent>
1

> <s_lp_Variant>
sdf/inactives_sanitized.sdf:187-1

$$$$
sdf/inactives_sanitized.sdf:188
                    3D
 Schrodinger Suite 2020-1.
 15 16  0  0  1  0            999 V2000
    4.4017    2.6170   -0.0000 S   0  0  0  0  0  0
    4.2312   -0.1065   -0.0000 N   0  0  0  0  0  0
    2.0606   -1.2059   -0.0000 N   0  0  0  0  0  0
    0.0398   -0.0102   -0.0000 N   0  0  0  0  0  0
    2.1634    1.2066   -0.0000 C   0  0  0  0  0  0
    3.5843    1.0636   -0.0000 C   0  0  0  0  0  0
    1.4346   -0.0018   -0.0000 C   0  0  0  0  0  0
    1.7683    2.5764   -0.0000 C   0  0  0  0  0  0
    2.8528    3.4301   -0.0000 C   0  0  0  0  0  0
    3.4165   -1.1925   -0.0000 C   0  0  0  0  0  0
   -0.4657    0.8640   -0.0000 H   0  0  0  0  0  0
   -0.4478   -0.8947   -0.0000 H   0  0  0  0  0  0
    0.7408    2.9095   -0.0000 H   0  0  0  0  0  0
    2.8232    4.5100   -0.0000 H   0  0  0  0  0  0
    3.9039   -2.1562   -0.0000 H   0  0  0  0  0  0
  1  6  1  0  0  0
  1  9  1  0  0  0
  2  6  2  0  0  0
  2 10  1  0  0  0
  3  7  1  0  0  0
  3 10  2  0  0  0
  4  7  1  0  0  0
  4 11  1  0  0  0
  4 12  1  0  0  0
  5  6  1  0  0  0
  5  7  2  0  0  0
  5  8  1  0  0  0
  8  9  2  0  0  0
  8 13  1  0  0  0
  9 14  1  0  0  0
 10 15  1  0  0  0
M  END
> <chembl_id>
CHEMBL1972934

> <chembl_pref_name>
None

> <s_m_source_file>
sdf/inactives_sanitized.sdf

> <i_m_source_file_index>
188

> <i_lp_mmshare_version>
49012

> <i_m_ct_stereo_status>
1

> <i_f3d_flags>
0

> <s_epik_input>
W2NIXTFbY0hdc2MoYzEyKW5bY0hdbmMyW05IMl0=

> <s_epik_cmdline>
J2VwaWtfcHl0aG9uJywgJy1waHQnLCAnMC41JywgJy1waCcsICc3LjUnLCAnLW50JywgJy1tYScsICcyMDAnLCAnLWltYWUnLCAnPGluZmlsZS5tYWU+JywgJy1vbWFlJywgJzxvdXRmaWxlLm1hZT4n

> <r_lp_tautomer_probability>
1

> <r_epik_Ionization_Penalty>
  0.0001

> <r_epik_Ionization_Penalty_Charging>
  0.0000

> <r_epik_Ionization_Penalty_Neutral>
  0.0001

> <r_epik_State_Penalty>
 -0.0000

> <r_epik_Charging_Adjusted_Penalty>
0

> <i_epik_Tot_Q>
0

> <i_epik_Tot_abs_Q>
0

> <s_lp_Force_Field>
OPLS3e

> <r_lp_Energy>
18.685401

> <b_lp_Chiralities_Consistent>
1

> <s_lp_Variant>
sdf/inactives_sanitized.sdf:188-1

$$$$
sdf/inactives_sanitized.sdf:189
                    3D
 Schrodinger Suite 2020-1.
 40 42  0  0  1  0            999 V2000
   -0.4853    2.0421    0.5052 O   0  0  0  0  0  0
    3.1982    2.4649    4.0007 O   0  0  0  0  0  0
   -4.6306    1.3098    0.0762 N   0  0  0  0  0  0
   -4.1308   -1.0474   -0.0062 N   0  0  0  0  0  0
    0.0071   -0.1002   -0.0540 N   0  0  0  0  0  0
   -9.2449   -0.8899   -0.2239 N   0  0  0  0  0  0
   -5.0028    0.0004    0.0019 C   0  0  0  0  0  0
   -2.3240    0.5648    0.1379 C   0  0  0  0  0  0
   -6.4727   -0.3083   -0.0763 C   0  0  0  0  0  0
   -0.8530    0.9004    0.2208 C   0  0  0  0  0  0
   -3.3000    1.5715    0.1445 C   0  0  0  0  0  0
   -2.8072   -0.7516    0.0625 C   0  0  0  0  0  0
   -6.9477   -1.6337   -0.1085 C   0  0  0  0  0  0
   -7.4397    0.7144   -0.1212 C   0  0  0  0  0  0
    2.0178    0.0340    1.4298 C   0  0  0  0  0  0
    1.4658   -0.0050    0.0095 C   0  0  0  0  0  0
    2.3368    1.2566    2.0304 C   0  0  0  0  0  0
    2.8755    1.3021    3.3279 C   0  0  0  0  0  0
   -8.3199   -1.8791   -0.1813 C   0  0  0  0  0  0
   -8.7949    0.3878   -0.1936 C   0  0  0  0  0  0
    2.2730   -1.1565    2.1158 C   0  0  0  0  0  0
    3.1093    0.0999    4.0001 C   0  0  0  0  0  0
    2.8130   -1.1232    3.3999 C   0  0  0  0  0  0
    2.9458    3.7190    3.3762 C   0  0  0  0  0  0
   -0.3691   -1.0178   -0.2411 H   0  0  0  0  0  0
   -3.0324    2.6171    0.2032 H   0  0  0  0  0  0
   -2.1439   -1.6043    0.0608 H   0  0  0  0  0  0
   -6.2701   -2.4744   -0.0773 H   0  0  0  0  0  0
   -7.1562    1.7565   -0.1023 H   0  0  0  0  0  0
    1.8813   -0.8725   -0.5049 H   0  0  0  0  0  0
    1.8146    0.8633   -0.5537 H   0  0  0  0  0  0
    2.1510    2.1660    1.4786 H   0  0  0  0  0  0
   -8.6966   -2.8910   -0.2060 H   0  0  0  0  0  0
   -9.5462    1.1630   -0.2290 H   0  0  0  0  0  0
    2.0500   -2.1088    1.6569 H   0  0  0  0  0  0
    3.5259    0.1144    4.9967 H   0  0  0  0  0  0
    3.0033   -2.0445    3.9304 H   0  0  0  0  0  0
    3.2399    4.5231    4.0507 H   0  0  0  0  0  0
    1.8856    3.8479    3.1522 H   0  0  0  0  0  0
    3.5222    3.8318    2.4567 H   0  0  0  0  0  0
  1 10  2  0  0  0
  2 18  1  0  0  0
  2 24  1  0  0  0
  3  7  2  0  0  0
  3 11  1  0  0  0
  4  7  1  0  0  0
  4 12  2  0  0  0
  5 10  1  0  0  0
  5 16  1  0  0  0
  5 25  1  0  0  0
  6 19  2  0  0  0
  6 20  1  0  0  0
  7  9  1  0  0  0
  8 10  1  0  0  0
  8 11  2  0  0  0
  8 12  1  0  0  0
  9 13  2  0  0  0
  9 14  1  0  0  0
 11 26  1  0  0  0
 12 27  1  0  0  0
 13 19  1  0  0  0
 13 28  1  0  0  0
 14 20  2  0  0  0
 14 29  1  0  0  0
 15 16  1  0  0  0
 15 17  2  0  0  0
 15 21  1  0  0  0
 16 30  1  0  0  0
 16 31  1  0  0  0
 17 18  1  0  0  0
 17 32  1  0  0  0
 18 22  2  0  0  0
 19 33  1  0  0  0
 20 34  1  0  0  0
 21 23  2  0  0  0
 21 35  1  0  0  0
 22 23  1  0  0  0
 22 36  1  0  0  0
 23 37  1  0  0  0
 24 38  1  0  0  0
 24 39  1  0  0  0
 24 40  1  0  0  0
M  END
> <chembl_id>
CHEMBL2004159

> <chembl_pref_name>
None

> <s_m_source_file>
sdf/inactives_sanitized.sdf

> <i_m_source_file_index>
189

> <i_lp_mmshare_version>
49012

> <i_m_ct_stereo_status>
1

> <i_f3d_flags>
0

> <s_epik_input>
W2NIXTFbY0hdW2NIXWMoT1tDSDNdKVtjSF1jMVtDSDJdW05IXUMoPU8pYyhbY0hdbjIpW2NIXW5jMi1jM1tjSF1bY0hdbltjSF1bY0hdMw==

> <s_epik_cmdline>
J2VwaWtfcHl0aG9uJywgJy1waHQnLCAnMC41JywgJy1waCcsICc3LjUnLCAnLW50JywgJy1tYScsICcyMDAnLCAnLWltYWUnLCAnPGluZmlsZS5tYWU+JywgJy1vbWFlJywgJzxvdXRmaWxlLm1hZT4n

> <r_lp_tautomer_probability>
1

> <r_epik_Ionization_Penalty>
  0.0002

> <r_epik_Ionization_Penalty_Charging>
  0.0000

> <r_epik_Ionization_Penalty_Neutral>
  0.0002

> <r_epik_State_Penalty>
 -0.0000

> <r_epik_Charging_Adjusted_Penalty>
0

> <i_epik_Tot_Q>
0

> <i_epik_Tot_abs_Q>
0

> <s_lp_Force_Field>
OPLS3e

> <r_lp_Energy>
43.881785

> <b_lp_Chiralities_Consistent>
1

> <s_lp_Variant>
sdf/inactives_sanitized.sdf:189-1

$$$$
sdf/inactives_sanitized.sdf:190
                    3D
 Schrodinger Suite 2020-1.
 15 16  0  0  1  0            999 V2000
    0.0377   -2.9825   -0.0000 Cl  0  0  0  0  0  0
    2.0909   -1.2257   -0.0000 N   0  0  0  0  0  0
    3.5795    0.4750    0.0000 N   0  0  0  0  0  0
    2.2933    0.9874   -0.0000 N   0  0  0  0  0  0
    4.0348   -3.2195    0.0000 N   0  0  0  0  0  0
    0.0714    0.1412   -0.0000 N   0  0  0  0  0  0
    3.4553   -0.8713    0.0000 C   0  0  0  0  0  0
    1.4303   -0.0065   -0.0000 C   0  0  0  0  0  0
    1.7132   -2.5534   -0.0000 C   0  0  0  0  0  0
    4.4009   -1.9118    0.0000 C   0  0  0  0  0  0
    2.7138   -3.5236    0.0000 C   0  0  0  0  0  0
   -0.3599    1.0547   -0.0000 H   0  0  0  0  0  0
   -0.5494   -0.6555   -0.0000 H   0  0  0  0  0  0
    5.4610   -1.7046    0.0000 H   0  0  0  0  0  0
    2.4632   -4.5745    0.0000 H   0  0  0  0  0  0
  1  9  1  0  0  0
  2  7  1  0  0  0
  2  8  1  0  0  0
  2  9  1  0  0  0
  3  4  1  0  0  0
  3  7  2  0  0  0
  4  8  2  0  0  0
  5 10  2  0  0  0
  5 11  1  0  0  0
  6  8  1  0  0  0
  6 12  1  0  0  0
  6 13  1  0  0  0
  7 10  1  0  0  0
  9 11  2  0  0  0
 10 14  1  0  0  0
 11 15  1  0  0  0
M  END
> <chembl_id>
CHEMBL1968130

> <chembl_pref_name>
None

> <s_m_source_file>
sdf/inactives_sanitized.sdf

> <i_m_source_file_index>
190

> <i_lp_mmshare_version>
49012

> <i_m_ct_stereo_status>
1

> <i_f3d_flags>
0

> <s_epik_input>
Q2xjMVtjSF1uW2NIXWMobjEyKW5uYzJbTkgyXQ==

> <s_epik_cmdline>
J2VwaWtfcHl0aG9uJywgJy1waHQnLCAnMC41JywgJy1waCcsICc3LjUnLCAnLW50JywgJy1tYScsICcyMDAnLCAnLWltYWUnLCAnPGluZmlsZS5tYWU+JywgJy1vbWFlJywgJzxvdXRmaWxlLm1hZT4n

> <r_lp_tautomer_probability>
1

> <r_epik_Ionization_Penalty>
  0.0000

> <r_epik_Ionization_Penalty_Charging>
  0.0000

> <r_epik_Ionization_Penalty_Neutral>
  0.0000

> <r_epik_State_Penalty>
 -0.0000

> <r_epik_Charging_Adjusted_Penalty>
0

> <i_epik_Tot_Q>
0

> <i_epik_Tot_abs_Q>
0

> <s_lp_Force_Field>
OPLS3e

> <r_lp_Energy>
14.53561

> <b_lp_Chiralities_Consistent>
1

> <s_lp_Variant>
sdf/inactives_sanitized.sdf:190-1

$$$$
sdf/inactives_sanitized.sdf:191
                    3D
 Schrodinger Suite 2020-1.
 27 29  0  0  1  0            999 V2000
   -3.2279    1.8679    0.0082 C   0  0  0  0  0  0
   -4.4061    1.1083   -0.6609 C   0  0  0  0  0  0
   -4.5370   -0.2665   -0.1229 N   0  0  0  0  0  0
   -3.5080   -1.1424    0.0435 C   0  0  0  0  0  0
   -2.0668    0.9032    0.0518 C   0  0  0  0  0  0
   -2.2219   -0.4742    0.0010 C   0  0  0  0  0  0
   -0.9196   -0.9966    0.0358 C   0  0  0  0  0  0
    0.0124    0.0443    0.0154 C   0  0  0  0  0  0
   -0.7315    1.2016    0.0082 N   0  0  0  0  0  0
    1.5071    0.0223    0.0068 C   0  0  0  0  0  0
    2.1932   -1.2001    0.0033 C   0  0  0  0  0  0
    3.5893   -1.1945   -0.0044 C   0  0  0  0  0  0
    4.3229   -0.0532   -0.0086 N   0  0  0  0  0  0
    3.6523    1.1261   -0.0050 C   0  0  0  0  0  0
    2.2584    1.2072    0.0027 C   0  0  0  0  0  0
   -3.7286   -2.3287    0.2765 O   0  0  0  0  0  0
   -3.5076    2.1748    1.0168 H   0  0  0  0  0  0
   -2.9950    2.7825   -0.5379 H   0  0  0  0  0  0
   -5.3425    1.6451   -0.5060 H   0  0  0  0  0  0
   -4.2543    1.0444   -1.7401 H   0  0  0  0  0  0
   -5.4668   -0.6050    0.0776 H   0  0  0  0  0  0
   -0.6800   -2.0498    0.0552 H   0  0  0  0  0  0
   -0.3481    2.1356   -0.0083 H   0  0  0  0  0  0
    1.6627   -2.1406    0.0064 H   0  0  0  0  0  0
    4.1422   -2.1223   -0.0076 H   0  0  0  0  0  0
    4.2555    2.0220   -0.0084 H   0  0  0  0  0  0
    1.7799    2.1754    0.0058 H   0  0  0  0  0  0
  1  5  1  0  0  0
  1  2  1  0  0  0
  1 17  1  0  0  0
  1 18  1  0  0  0
  2  3  1  0  0  0
  2 19  1  0  0  0
  2 20  1  0  0  0
  3  4  1  0  0  0
  3 21  1  0  0  0
  4  6  1  0  0  0
  4 16  2  0  0  0
  5  9  1  0  0  0
  5  6  2  0  0  0
  6  7  1  0  0  0
  7  8  2  0  0  0
  7 22  1  0  0  0
  8  9  1  0  0  0
  8 10  1  0  0  0
  9 23  1  0  0  0
 10 11  2  0  0  0
 10 15  1  0  0  0
 11 12  1  0  0  0
 11 24  1  0  0  0
 12 13  2  0  0  0
 12 25  1  0  0  0
 13 14  1  0  0  0
 14 15  2  0  0  0
 14 26  1  0  0  0
 15 27  1  0  0  0
M  END
> <chembl_id>
CHEMBL225519

> <chembl_pref_name>
None

> <s_m_source_file>
sdf/inactives_sanitized.sdf

> <i_m_source_file_index>
191

> <i_lp_mmshare_version>
49012

> <i_m_ct_stereo_status>
1

> <i_f3d_flags>
0

> <s_epik_input>
W0NIMl0xW0NIMl1bTkhdQyg9TyljKGMxMilbY0hdYyhbbkhdMiktYzNbY0hdW2NIXW5bY0hdW2NIXTM=

> <s_epik_cmdline>
J2VwaWtfcHl0aG9uJywgJy1waHQnLCAnMC41JywgJy1waCcsICc3LjUnLCAnLW50JywgJy1tYScsICcyMDAnLCAnLWltYWUnLCAnPGluZmlsZS5tYWU+JywgJy1vbWFlJywgJzxvdXRmaWxlLm1hZT4n

> <r_lp_tautomer_probability>
1

> <r_epik_Ionization_Penalty>
  0.0015

> <r_epik_Ionization_Penalty_Charging>
  0.0000

> <r_epik_Ionization_Penalty_Neutral>
  0.0015

> <r_epik_State_Penalty>
 -0.0000

> <r_epik_Charging_Adjusted_Penalty>
0

> <i_epik_Tot_Q>
0

> <i_epik_Tot_abs_Q>
0

> <s_lp_Force_Field>
OPLS3e

> <r_lp_Energy>
20.825881

> <b_lp_Chiralities_Consistent>
1

> <s_lp_Variant>
sdf/inactives_sanitized.sdf:191-1

$$$$
sdf/inactives_sanitized.sdf:192
                    3D
 Schrodinger Suite 2020-1.
 41 44  0  0  1  0            999 V2000
   -8.1409   -2.3750    0.6799 Cl  0  0  0  0  0  0
   -5.0481   -4.2147    4.7132 Cl  0  0  0  0  0  0
   -0.8662    1.9901   -0.7417 O   0  0  0  0  0  0
    5.7042   -1.8601   -0.3258 O   0  5  0  0  0  0
    5.7178   -0.2912   -1.8037 O   0  0  0  0  0  0
   -5.7124   -0.2166    0.4916 N   0  0  0  0  0  0
   -2.0587    1.6278    1.1634 N   0  0  0  0  0  0
   -0.0017    0.6670    0.8983 N   0  0  0  0  0  0
    5.1765   -0.9045   -0.8879 N   0  3  0  0  0  0
   -4.5693   -1.1355    2.2030 C   0  0  0  0  0  0
   -3.8329   -0.0057    1.7115 C   0  0  0  0  0  0
   -5.7557   -1.2444    1.4123 C   0  0  0  0  0  0
   -4.5537    0.5005    0.6431 C   0  0  0  0  0  0
   -6.7076   -2.2471    1.6352 C   0  0  0  0  0  0
   -2.5104    0.6146    2.1580 C   0  0  0  0  0  0
   -4.3568   -2.0663    3.2324 C   0  0  0  0  0  0
   -4.1728    1.7515   -0.1304 C   0  0  0  0  0  0
   -5.3036   -3.0657    3.4510 C   0  0  0  0  0  0
   -6.4525   -3.1503    2.6675 C   0  0  0  0  0  0
   -3.1385    2.5412    0.7205 C   0  0  0  0  0  0
   -0.9758    1.4358    0.3549 C   0  0  0  0  0  0
    1.2709    0.3352    0.3965 C   0  0  0  0  0  0
    3.8284   -0.4731   -0.4424 C   0  0  0  0  0  0
    1.9090   -0.7393    1.0170 C   0  0  0  0  0  0
    1.9234    1.0197   -0.6394 C   0  0  0  0  0  0
    3.1738   -1.1428    0.6000 C   0  0  0  0  0  0
    3.1888    0.6136   -1.0538 C   0  0  0  0  0  0
   -6.3998    0.0074   -0.2134 H   0  0  0  0  0  0
   -0.2214    0.2370    1.7846 H   0  0  0  0  0  0
   -1.8055   -0.2118    2.2496 H   0  0  0  0  0  0
   -2.5649    1.0346    3.1625 H   0  0  0  0  0  0
   -3.4713   -2.0110    3.8485 H   0  0  0  0  0  0
   -3.7386    1.4942   -1.0972 H   0  0  0  0  0  0
   -5.0416    2.3744   -0.3439 H   0  0  0  0  0  0
   -7.1669   -3.9368    2.8645 H   0  0  0  0  0  0
   -3.6150    2.9398    1.6174 H   0  0  0  0  0  0
   -2.7436    3.4361    0.2366 H   0  0  0  0  0  0
    1.4264   -1.2744    1.8228 H   0  0  0  0  0  0
    1.4847    1.8740   -1.1294 H   0  0  0  0  0  0
    3.6395   -1.9819    1.0959 H   0  0  0  0  0  0
    3.6694    1.1574   -1.8542 H   0  0  0  0  0  0
  1 14  1  0  0  0
  2 18  1  0  0  0
  3 21  2  0  0  0
  4  9  1  0  0  0
  5  9  2  0  0  0
  6 12  1  0  0  0
  6 13  1  0  0  0
  6 28  1  0  0  0
  7 15  1  0  0  0
  7 20  1  0  0  0
  7 21  1  0  0  0
  8 21  1  0  0  0
  8 22  1  0  0  0
  8 29  1  0  0  0
  9 23  1  0  0  0
 10 11  1  0  0  0
 10 12  2  0  0  0
 10 16  1  0  0  0
 11 13  2  0  0  0
 11 15  1  0  0  0
 12 14  1  0  0  0
 13 17  1  0  0  0
 14 19  2  0  0  0
 15 30  1  0  0  0
 15 31  1  0  0  0
 16 18  2  0  0  0
 16 32  1  0  0  0
 17 20  1  0  0  0
 17 33  1  0  0  0
 17 34  1  0  0  0
 18 19  1  0  0  0
 19 35  1  0  0  0
 20 36  1  0  0  0
 20 37  1  0  0  0
 22 24  2  0  0  0
 22 25  1  0  0  0
 23 26  2  0  0  0
 23 27  1  0  0  0
 24 26  1  0  0  0
 24 38  1  0  0  0
 25 27  2  0  0  0
 25 39  1  0  0  0
 26 40  1  0  0  0
 27 41  1  0  0  0
M  CHG  2   4  -1   9   1
M  END
> <chembl_id>
CHEMBL1976196

> <chembl_pref_name>
None

> <s_m_source_file>
sdf/inactives_sanitized.sdf

> <i_m_source_file_index>
192

> <i_lp_mmshare_version>
49012

> <i_m_ct_stereo_status>
1

> <i_f3d_flags>
0

> <s_epik_input>
Q2xjKFtjSF0xKVtjSF1jKENsKWMyW25IXWMoYzNjMTIpW0NIMl1bQ0gyXU4oW0NIMl0zKUMoPU8pW05IXWM0W2NIXVtjSF1jKFtOK10oW08tXSk9TylbY0hdW2NIXTQ=

> <s_epik_cmdline>
J2VwaWtfcHl0aG9uJywgJy1waHQnLCAnMC41JywgJy1waCcsICc3LjUnLCAnLW50JywgJy1tYScsICcyMDAnLCAnLWltYWUnLCAnPGluZmlsZS5tYWU+JywgJy1vbWFlJywgJzxvdXRmaWxlLm1hZT4n

> <r_lp_tautomer_probability>
1

> <r_epik_Ionization_Penalty>
  0.0000

> <r_epik_Ionization_Penalty_Charging>
  0.0000

> <r_epik_Ionization_Penalty_Neutral>
  0.0000

> <r_epik_State_Penalty>
 -0.0000

> <r_epik_Charging_Adjusted_Penalty>
0

> <i_epik_Tot_Q>
0

> <i_epik_Tot_abs_Q>
2

> <s_lp_Force_Field>
OPLS3e

> <r_lp_Energy>
40.522788

> <b_lp_Chiralities_Consistent>
1

> <s_lp_Variant>
sdf/inactives_sanitized.sdf:192-1

$$$$
sdf/inactives_sanitized.sdf:193
                    3D
 Schrodinger Suite 2020-1.
 26 28  0  0  1  0            999 V2000
   -5.6234   -1.8299   -0.0127 O   0  0  0  0  0  0
   -4.1164   -0.0778    0.0227 N   0  0  0  0  0  0
   -2.0860    1.2700    0.0449 N   0  0  0  0  0  0
   -2.1264   -1.1445   -0.0117 C   0  0  0  0  0  0
   -2.7416    0.0865    0.0199 C   0  0  0  0  0  0
    0.0063    0.0049    0.0072 C   0  0  0  0  0  0
   -0.7317   -1.1938   -0.0184 C   0  0  0  0  0  0
   -3.1875   -2.1984   -0.0349 C   0  0  0  0  0  0
   -4.4816   -1.3755   -0.0078 C   0  0  0  0  0  0
    1.5002    0.0021    0.0037 C   0  0  0  0  0  0
   -0.7272    1.2074    0.0375 C   0  0  0  0  0  0
    2.2172    1.0238   -0.6358 C   0  0  0  0  0  0
    2.2158   -1.0228    0.6396 C   0  0  0  0  0  0
    3.6096    1.0217   -0.6414 C   0  0  0  0  0  0
    3.6082   -1.0280    0.6368 C   0  0  0  0  0  0
    4.3000   -0.0048   -0.0041 C   0  0  0  0  0  0
   -4.7757    0.6861    0.0473 H   0  0  0  0  0  0
   -0.2262   -2.1477   -0.0519 H   0  0  0  0  0  0
   -3.1480   -2.8020   -0.9422 H   0  0  0  0  0  0
   -3.1407   -2.8486    0.8393 H   0  0  0  0  0  0
   -0.2255    2.1634    0.0701 H   0  0  0  0  0  0
    1.6996    1.8240   -1.1443 H   0  0  0  0  0  0
    1.6971   -1.8203    1.1511 H   0  0  0  0  0  0
    4.1515    1.8120   -1.1397 H   0  0  0  0  0  0
    4.1488   -1.8213    1.1319 H   0  0  0  0  0  0
    5.3801   -0.0076   -0.0070 H   0  0  0  0  0  0
  1  9  2  0  0  0
  2  5  1  0  0  0
  2  9  1  0  0  0
  2 17  1  0  0  0
  3  5  2  0  0  0
  3 11  1  0  0  0
  4  5  1  0  0  0
  4  7  2  0  0  0
  4  8  1  0  0  0
  6  7  1  0  0  0
  6 10  1  0  0  0
  6 11  2  0  0  0
  7 18  1  0  0  0
  8  9  1  0  0  0
  8 19  1  0  0  0
  8 20  1  0  0  0
 10 12  2  0  0  0
 10 13  1  0  0  0
 11 21  1  0  0  0
 12 14  1  0  0  0
 12 22  1  0  0  0
 13 15  2  0  0  0
 13 23  1  0  0  0
 14 16  2  0  0  0
 14 24  1  0  0  0
 15 16  1  0  0  0
 15 25  1  0  0  0
 16 26  1  0  0  0
M  END
> <chembl_id>
CHEMBL1983630

> <chembl_pref_name>
None

> <s_m_source_file>
sdf/inactives_sanitized.sdf

> <i_m_source_file_index>
193

> <i_lp_mmshare_version>
49012

> <i_m_ct_stereo_status>
1

> <i_f3d_flags>
0

> <s_epik_input>
Tz1DKFtDSDJdMSlbTkhdYyhjMTIpbltjSF1jKFtjSF0yKS1jM1tjSF1bY0hdW2NIXVtjSF1bY0hdMw==

> <s_epik_cmdline>
J2VwaWtfcHl0aG9uJywgJy1waHQnLCAnMC41JywgJy1waCcsICc3LjUnLCAnLW50JywgJy1tYScsICcyMDAnLCAnLWltYWUnLCAnPGluZmlsZS5tYWU+JywgJy1vbWFlJywgJzxvdXRmaWxlLm1hZT4n

> <r_lp_tautomer_probability>
1

> <r_epik_Ionization_Penalty>
  0.0001

> <r_epik_Ionization_Penalty_Charging>
  0.0000

> <r_epik_Ionization_Penalty_Neutral>
  0.0001

> <r_epik_State_Penalty>
 -0.0000

> <r_epik_Charging_Adjusted_Penalty>
0

> <i_epik_Tot_Q>
0

> <i_epik_Tot_abs_Q>
0

> <s_lp_Force_Field>
OPLS3e

> <r_lp_Energy>
21.882595

> <b_lp_Chiralities_Consistent>
1

> <s_lp_Variant>
sdf/inactives_sanitized.sdf:193-1

$$$$
sdf/inactives_sanitized.sdf:194
                    3D
 Schrodinger Suite 2020-1.
 21 22  0  0  1  0            999 V2000
   -2.1821   -0.4247    2.7153 O   0  0  0  0  0  0
    0.0936    0.0720    0.1575 N   0  0  0  0  0  0
   -0.4352   -0.6095    1.2295 N   0  0  0  0  0  0
    2.1988    0.7848    0.9749 N   0  0  0  0  0  0
   -0.4280    2.1130   -0.9370 N   0  0  0  0  0  0
   -0.7038    1.1996    0.0463 C   0  0  0  0  0  0
    1.4910    0.0458    0.0731 C   0  0  0  0  0  0
   -1.5105   -0.0253    1.7671 C   0  0  0  0  0  0
   -1.6785    1.1646    0.9699 C   0  0  0  0  0  0
    2.1186   -0.7246   -0.9120 C   0  0  0  0  0  0
    3.5540    0.7640    0.8996 C   0  0  0  0  0  0
    3.5139   -0.7347   -0.9726 C   0  0  0  0  0  0
    4.2479    0.0197   -0.0555 C   0  0  0  0  0  0
    0.0431   -1.4632    1.4778 H   0  0  0  0  0  0
    0.3552    1.9859   -1.5611 H   0  0  0  0  0  0
   -0.9948    2.9403   -1.0528 H   0  0  0  0  0  0
   -2.4568    1.9002    1.1063 H   0  0  0  0  0  0
    1.5391   -1.3036   -1.6166 H   0  0  0  0  0  0
    4.0855    1.3608    1.6263 H   0  0  0  0  0  0
    4.0213   -1.3219   -1.7238 H   0  0  0  0  0  0
    5.3276    0.0270   -0.0845 H   0  0  0  0  0  0
  1  8  2  0  0  0
  2  3  1  0  0  0
  2  6  1  0  0  0
  2  7  1  0  0  0
  3  8  1  0  0  0
  3 14  1  0  0  0
  4  7  2  0  0  0
  4 11  1  0  0  0
  5  6  1  0  0  0
  5 15  1  0  0  0
  5 16  1  0  0  0
  6  9  2  0  0  0
  7 10  1  0  0  0
  8  9  1  0  0  0
  9 17  1  0  0  0
 10 12  2  0  0  0
 10 18  1  0  0  0
 11 13  2  0  0  0
 11 19  1  0  0  0
 12 13  1  0  0  0
 12 20  1  0  0  0
 13 21  1  0  0  0
M  END
> <chembl_id>
CHEMBL1995765

> <chembl_pref_name>
None

> <s_m_source_file>
sdf/inactives_sanitized.sdf

> <i_m_source_file_index>
194

> <i_lp_mmshare_version>
49012

> <i_m_ct_stereo_status>
1

> <i_f3d_flags>
0

> <s_epik_input>
W05IMl1jMVtjSF1jKD1PKVtuSF1uMS1jMm5bY0hdW2NIXVtjSF1bY0hdMg==

> <s_epik_cmdline>
J2VwaWtfcHl0aG9uJywgJy1waHQnLCAnMC41JywgJy1waCcsICc3LjUnLCAnLW50JywgJy1tYScsICcyMDAnLCAnLWltYWUnLCAnPGluZmlsZS5tYWU+JywgJy1vbWFlJywgJzxvdXRmaWxlLm1hZT4n

> <r_lp_tautomer_probability>
0.910792116351189

> <r_epik_Ionization_Penalty>
  1.1401

> <r_epik_Ionization_Penalty_Charging>
  0.0000

> <r_epik_Ionization_Penalty_Neutral>
  1.1401

> <r_epik_State_Penalty>
  0.3549

> <r_epik_Charging_Adjusted_Penalty>
0.354891746384926

> <i_epik_Tot_Q>
0

> <i_epik_Tot_abs_Q>
0

> <s_lp_Force_Field>
OPLS3e

> <r_lp_Energy>
11.052863

> <b_lp_Chiralities_Consistent>
1

> <s_lp_Variant>
sdf/inactives_sanitized.sdf:194-1

$$$$
sdf/inactives_sanitized.sdf:194
                    3D
 Schrodinger Suite 2020-1.
 20 21  0  0  1  0            999 V2000
   -2.8844   -1.3393   -0.4848 O   0  0  0  0  0  0
    0.1102    0.2287   -0.1095 N   0  0  0  0  0  0
   -0.6752   -0.9433   -0.1860 N   0  5  0  0  0  0
    2.2790    1.2414   -0.2267 N   0  0  0  0  0  0
   -0.2687    2.5866   -0.2205 N   0  0  0  0  0  0
   -0.7368    1.2987   -0.2651 C   0  0  0  0  0  0
    1.5274    0.1243    0.0019 C   0  0  0  0  0  0
   -1.9179   -0.5883   -0.3723 C   0  0  0  0  0  0
   -1.9845    0.8485   -0.4259 C   0  0  0  0  0  0
    2.1552   -1.0911    0.3439 C   0  0  0  0  0  0
    3.6300    1.1710   -0.1279 C   0  0  0  0  0  0
    3.5464   -1.1497    0.4433 C   0  0  0  0  0  0
    4.3012   -0.0035    0.2036 C   0  0  0  0  0  0
    0.7180    2.7711   -0.1068 H   0  0  0  0  0  0
   -0.8919    3.3736   -0.3254 H   0  0  0  0  0  0
   -2.8782    1.4378   -0.5655 H   0  0  0  0  0  0
    1.5839   -1.9870    0.5370 H   0  0  0  0  0  0
    4.1757    2.0827   -0.3205 H   0  0  0  0  0  0
    4.0338   -2.0771    0.7055 H   0  0  0  0  0  0
    5.3788   -0.0253    0.2747 H   0  0  0  0  0  0
  1  8  2  0  0  0
  2  3  1  0  0  0
  2  6  1  0  0  0
  2  7  1  0  0  0
  3  8  1  0  0  0
  4  7  2  0  0  0
  4 11  1  0  0  0
  5  6  1  0  0  0
  5 14  1  0  0  0
  5 15  1  0  0  0
  6  9  2  0  0  0
  7 10  1  0  0  0
  8  9  1  0  0  0
  9 16  1  0  0  0
 10 12  2  0  0  0
 10 17  1  0  0  0
 11 13  2  0  0  0
 11 18  1  0  0  0
 12 13  1  0  0  0
 12 19  1  0  0  0
 13 20  1  0  0  0
M  CHG  1   3  -1
M  END
> <chembl_id>
CHEMBL1995765

> <chembl_pref_name>
None

> <s_m_source_file>
sdf/inactives_sanitized.sdf

> <i_m_source_file_index>
194

> <i_lp_mmshare_version>
49012

> <i_m_ct_stereo_status>
1

> <i_f3d_flags>
0

> <s_epik_input>
W05IMl1jMVtjSF1jKD1PKVtuSF1uMS1jMm5bY0hdW2NIXVtjSF1bY0hdMg==

> <s_epik_cmdline>
J2VwaWtfcHl0aG9uJywgJy1waHQnLCAnMC41JywgJy1waCcsICc3LjUnLCAnLW50JywgJy1tYScsICcyMDAnLCAnLWltYWUnLCAnPGluZmlsZS5tYWU+JywgJy1vbWFlJywgJzxvdXRmaWxlLm1hZT4n

> <r_lp_tautomer_probability>
0.984663125857851

> <r_epik_Ionization_Penalty>
  1.3331

> <r_epik_Ionization_Penalty_Charging>
  0.0000

> <r_epik_Ionization_Penalty_Neutral>
  1.3331

> <r_epik_State_Penalty>
  0.4723

> <r_epik_Charging_Adjusted_Penalty>
0.472273383659435

> <i_epik_Tot_Q>
-1

> <i_epik_Tot_abs_Q>
1

> <s_lp_Force_Field>
OPLS3e

> <r_lp_Energy>
16.536453

> <b_lp_Chiralities_Consistent>
1

> <s_lp_Variant>
sdf/inactives_sanitized.sdf:194-2

$$$$
sdf/inactives_sanitized.sdf:195
                    3D
 Schrodinger Suite 2020-1.
 36 38  0  0  1  0            999 V2000
    0.0081    2.3075   -0.1181 O   0  0  0  0  0  0
   -5.0937    2.0575    0.2979 O   0  5  0  0  0  0
   -4.0944    2.8179    0.1975 N   0  3  0  0  0  0
   -0.7679    1.1680   -0.0191 C   0  0  0  0  0  0
   -2.1737    1.2448    0.0911 C   0  0  0  0  0  0
   -2.7901    2.5922    0.1016 C   0  0  0  0  0  0
   -0.6025    3.5243   -0.0835 C   0  0  0  0  0  0
   -0.0952   -0.0621   -0.0407 C   0  0  0  0  0  0
   -1.9456    3.6883    0.0037 C   0  0  0  0  0  0
    0.3861    4.6242   -0.2374 C   0  0  0  0  0  0
   -2.8840    0.0358    0.1821 C   0  0  0  0  0  0
   -0.8363   -1.2414    0.0537 C   0  0  0  0  0  0
   -2.2230   -1.1917    0.1638 C   0  0  0  0  0  0
    1.4241   -0.1298   -0.1503 C   0  0  0  0  0  0
    0.0081    5.8666   -0.7681 C   0  0  0  0  0  0
    1.7159    4.4439    0.1720 C   0  0  0  0  0  0
    0.9357    6.8973   -0.8953 C   0  0  0  0  0  0
    2.6453    5.4728    0.0458 C   0  0  0  0  0  0
    1.9276    0.1476   -1.5550 C   0  0  0  0  0  0
    2.2512    6.6960   -0.4879 C   0  0  0  0  0  0
    2.6226   -0.7207   -2.3063 C   0  0  0  0  0  0
   -2.3810    4.6777    0.0065 H   0  0  0  0  0  0
   -3.9575    0.0089    0.2692 H   0  0  0  0  0  0
   -0.3400   -2.2009    0.0409 H   0  0  0  0  0  0
   -2.7898   -2.1083    0.2360 H   0  0  0  0  0  0
    1.8701    0.5992    0.5275 H   0  0  0  0  0  0
    1.7802   -1.1052    0.1870 H   0  0  0  0  0  0
   -1.0050    6.0436   -1.0972 H   0  0  0  0  0  0
    2.0396    3.5041    0.5956 H   0  0  0  0  0  0
    0.6354    7.8487   -1.3087 H   0  0  0  0  0  0
    3.6668    5.3231    0.3629 H   0  0  0  0  0  0
    1.7065    1.1270   -1.9550 H   0  0  0  0  0  0
    2.9715    7.4949   -0.5852 H   0  0  0  0  0  0
    2.8687   -1.7081   -1.9438 H   0  0  0  0  0  0
    2.9552   -0.4528   -3.2986 H   0  0  0  0  0  0
   -4.3262    3.8234    0.1866 H   0  0  0  0  0  0
  1  4  1  0  0  0
  1  7  1  0  0  0
  2  3  1  0  0  0
  3  6  2  3  0  0
  3 36  1  0  0  0
  4  5  2  0  0  0
  4  8  1  0  0  0
  5  6  1  0  0  0
  5 11  1  0  0  0
  6  9  1  0  0  0
  7  9  2  0  0  0
  7 10  1  0  0  0
  8 12  2  0  0  0
  8 14  1  0  0  0
  9 22  1  0  0  0
 10 15  2  0  0  0
 10 16  1  0  0  0
 11 13  2  0  0  0
 11 23  1  0  0  0
 12 13  1  0  0  0
 12 24  1  0  0  0
 13 25  1  0  0  0
 14 19  1  0  0  0
 14 26  1  0  0  0
 14 27  1  0  0  0
 15 17  1  0  0  0
 15 28  1  0  0  0
 16 18  2  0  0  0
 16 29  1  0  0  0
 17 20  2  0  0  0
 17 30  1  0  0  0
 18 20  1  0  0  0
 18 31  1  0  0  0
 19 21  2  0  0  0
 19 32  1  0  0  0
 20 33  1  0  0  0
 21 34  1  0  0  0
 21 35  1  0  0  0
M  CHG  2   2  -1   3   1
M  END
> <chembl_id>
CHEMBL1977749

> <chembl_pref_name>
None

> <s_m_source_file>
sdf/inactives_sanitized.sdf

> <i_m_source_file_index>
195

> <i_lp_mmshare_version>
49012

> <i_m_ct_stereo_status>
1

> <i_f3d_flags>
0

> <s_epik_input>
W2NIXTFbY0hdW2NIXVtjSF1bY0hdYzEtYyhvMilbY0hdYyg9TlxbT0hdKVxjKGMyMylbY0hdW2NIXVtjSF1jM1tDSDJdW0NIXT1bQ0gyXQ==

> <s_epik_cmdline>
J2VwaWtfcHl0aG9uJywgJy1waHQnLCAnMC41JywgJy1waCcsICc3LjUnLCAnLW50JywgJy1tYScsICcyMDAnLCAnLWltYWUnLCAnPGluZmlsZS5tYWU+JywgJy1vbWFlJywgJzxvdXRmaWxlLm1hZT4n

> <r_lp_tautomer_probability>
1

> <r_epik_Ionization_Penalty>
  0.0000

> <r_epik_Ionization_Penalty_Charging>
  0.0000

> <r_epik_Ionization_Penalty_Neutral>
  0.0000

> <r_epik_State_Penalty>
 -0.0000

> <r_epik_Charging_Adjusted_Penalty>
3.44877932237157e-05

> <i_epik_Tot_Q>
0

> <i_epik_Tot_abs_Q>
2

> <s_epik_Chemistry_Notes>
This compound has an imine and may undergo hydrolysis.

> <s_lp_Force_Field>
OPLS3e

> <r_lp_Energy>
40.69035

> <b_lp_Chiralities_Consistent>
1

> <s_lp_Variant>
sdf/inactives_sanitized.sdf:195-1

$$$$
sdf/inactives_sanitized.sdf:196
                    3D
 Schrodinger Suite 2020-1.
 39 42  0  0  1  0            999 V2000
   -4.3860    3.3640   -0.0417 O   0  0  0  0  0  0
   -0.6433   -0.9910    0.4583 N   0  0  0  0  0  0
   -1.9400   -0.6590    0.5005 N   0  0  0  0  0  0
   -3.3223    1.3771    0.1838 N   0  0  0  0  0  0
    7.2965    5.9164    4.0289 N   0  0  0  0  0  0
   -0.8878    1.2017   -0.0191 C   0  0  0  0  0  0
    0.0092    0.1251    0.1703 C   0  0  0  0  0  0
   -2.1384    0.6621    0.2336 C   0  0  0  0  0  0
    1.4971    0.1174    0.0770 C   0  0  0  0  0  0
   -0.8603    2.6220   -0.4151 C   0  0  0  0  0  0
   -3.3534    2.7023   -0.1185 C   0  0  0  0  0  0
   -2.0565    3.2702   -0.4844 C   0  0  0  0  0  0
    2.2484    1.0789    0.7601 C   0  0  0  0  0  0
    3.6481    1.1014    0.6855 C   0  0  0  0  0  0
    2.1609   -0.8555   -0.6769 C   0  0  0  0  0  0
    4.4353    2.1404    1.4084 C   0  0  0  0  0  0
    4.2875    0.1220   -0.0866 C   0  0  0  0  0  0
    0.4282    3.3001   -0.8459 C   0  0  0  0  0  0
    3.5515   -0.8514   -0.7603 C   0  0  0  0  0  0
    5.5329    2.7573    0.7947 C   0  0  0  0  0  0
    4.0899    2.5187    2.7121 C   0  0  0  0  0  0
    5.9151    4.0942    2.7649 C   0  0  0  0  0  0
    6.2704    3.7290    1.4660 C   0  0  0  0  0  0
    4.8236    3.4894    3.3892 C   0  0  0  0  0  0
    6.6845    5.1092    3.4692 C   0  0  0  0  0  0
   -2.6662   -1.3294    0.7082 H   0  0  0  0  0  0
   -2.0657    4.2989   -0.8154 H   0  0  0  0  0  0
    1.7345    1.8174    1.3584 H   0  0  0  0  0  0
    1.6001   -1.6126   -1.2061 H   0  0  0  0  0  0
    5.3652    0.1047   -0.1611 H   0  0  0  0  0  0
    0.2350    4.2370   -1.3701 H   0  0  0  0  0  0
    0.9940    2.6556   -1.5194 H   0  0  0  0  0  0
    1.0470    3.5309    0.0202 H   0  0  0  0  0  0
    4.0595   -1.6024   -1.3474 H   0  0  0  0  0  0
    5.8169    2.4896   -0.2129 H   0  0  0  0  0  0
    3.2515    2.0550    3.2116 H   0  0  0  0  0  0
    7.1122    4.1909    0.9686 H   0  0  0  0  0  0
    4.5366    3.7619    4.3954 H   0  0  0  0  0  0
   -4.1922    0.9802    0.5074 H   0  0  0  0  0  0
  1 11  2  0  0  0
  2  3  1  0  0  0
  2  7  2  0  0  0
  3  8  1  0  0  0
  3 26  1  0  0  0
  4  8  1  0  0  0
  4 11  1  0  0  0
  4 39  1  0  0  0
  5 25  3  0  0  0
  6  7  1  0  0  0
  6  8  2  0  0  0
  6 10  1  0  0  0
  7  9  1  0  0  0
  9 13  2  0  0  0
  9 15  1  0  0  0
 10 12  2  0  0  0
 10 18  1  0  0  0
 11 12  1  0  0  0
 12 27  1  0  0  0
 13 14  1  0  0  0
 13 28  1  0  0  0
 14 16  1  0  0  0
 14 17  2  0  0  0
 15 19  2  0  0  0
 15 29  1  0  0  0
 16 20  2  0  0  0
 16 21  1  0  0  0
 17 19  1  0  0  0
 17 30  1  0  0  0
 18 31  1  0  0  0
 18 32  1  0  0  0
 18 33  1  0  0  0
 19 34  1  0  0  0
 20 23  1  0  0  0
 20 35  1  0  0  0
 21 24  2  0  0  0
 21 36  1  0  0  0
 22 23  2  0  0  0
 22 24  1  0  0  0
 22 25  1  0  0  0
 23 37  1  0  0  0
 24 38  1  0  0  0
M  END
> <chembl_id>
CHEMBL2000724

> <chembl_pref_name>
None

> <s_m_source_file>
sdf/inactives_sanitized.sdf

> <i_m_source_file_index>
196

> <i_lp_mmshare_version>
49012

> <i_m_ct_stereo_status>
1

> <i_f3d_flags>
0

> <s_epik_input>
W0NIM11jMVtjSF1jKFtPSF0pbmMoYzEyKVtuSF1uYzItYzNbY0hdYyhbY0hdW2NIXVtjSF0zKS1jNFtjSF1bY0hdYyhDI04pW2NIXVtjSF00

> <s_epik_cmdline>
J2VwaWtfcHl0aG9uJywgJy1waHQnLCAnMC41JywgJy1waCcsICc3LjUnLCAnLW50JywgJy1tYScsICcyMDAnLCAnLWltYWUnLCAnPGluZmlsZS5tYWU+JywgJy1vbWFlJywgJzxvdXRmaWxlLm1hZT4n

> <r_lp_tautomer_probability>
1

> <r_epik_Ionization_Penalty>
  0.0001

> <r_epik_Ionization_Penalty_Charging>
  0.0000

> <r_epik_Ionization_Penalty_Neutral>
  0.0001

> <r_epik_State_Penalty>
 -0.0000

> <r_epik_Charging_Adjusted_Penalty>
3.43049996927489e-09

> <i_epik_Tot_Q>
0

> <i_epik_Tot_abs_Q>
0

> <s_lp_Force_Field>
OPLS3e

> <r_lp_Energy>
35.377484

> <b_lp_Chiralities_Consistent>
1

> <s_lp_Variant>
sdf/inactives_sanitized.sdf:196-1

$$$$
sdf/inactives_sanitized.sdf:197
                    3D
 Schrodinger Suite 2020-1.
 25 27  0  0  1  0            999 V2000
   -3.7525    2.8232    0.0000 O   0  0  0  0  0  0
   -2.0877    1.1867    0.0000 N   0  0  0  0  0  0
   -0.3238    2.4547    0.0000 N   0  0  0  0  0  0
   -1.4551    3.1617    0.0000 N   0  0  0  0  0  0
   -0.7244    1.2628    0.0000 C   0  0  0  0  0  0
    0.0188   -0.0018   -0.0000 C   0  0  0  0  0  0
   -2.5842    2.4357    0.0000 C   0  0  0  0  0  0
    1.4924   -0.0043   -0.0000 C   0  0  0  0  0  0
   -2.7524   -0.0202   -0.0000 C   0  0  0  0  0  0
   -0.6512   -1.1866   -0.0000 C   0  0  0  0  0  0
   -2.1117   -1.2105   -0.0000 C   0  0  0  0  0  0
    2.1934   -0.0035   -1.2101 C   0  0  0  0  0  0
    2.1934   -0.0035    1.2101 C   0  0  0  0  0  0
    3.5858   -0.0016   -1.2103 C   0  0  0  0  0  0
    3.5858   -0.0016    1.2103 C   0  0  0  0  0  0
    4.2757   -0.0007    0.0000 C   0  0  0  0  0  0
   -1.3860    4.1692    0.0000 H   0  0  0  0  0  0
   -3.8331    0.0164    0.0000 H   0  0  0  0  0  0
   -0.1075   -2.1208   -0.0000 H   0  0  0  0  0  0
   -2.6574   -2.1427   -0.0000 H   0  0  0  0  0  0
    1.6599   -0.0015   -2.1499 H   0  0  0  0  0  0
    1.6599   -0.0015    2.1499 H   0  0  0  0  0  0
    4.1278    0.0006   -2.1446 H   0  0  0  0  0  0
    4.1278    0.0006    2.1446 H   0  0  0  0  0  0
    5.3558    0.0012    0.0000 H   0  0  0  0  0  0
  1  7  2  0  0  0
  2  5  1  0  0  0
  2  7  1  0  0  0
  2  9  1  0  0  0
  3  4  1  0  0  0
  3  5  2  0  0  0
  4  7  1  0  0  0
  4 17  1  0  0  0
  5  6  1  0  0  0
  6  8  1  0  0  0
  6 10  2  0  0  0
  8 12  2  0  0  0
  8 13  1  0  0  0
  9 11  2  0  0  0
  9 18  1  0  0  0
 10 11  1  0  0  0
 10 19  1  0  0  0
 11 20  1  0  0  0
 12 14  1  0  0  0
 12 21  1  0  0  0
 13 15  2  0  0  0
 13 22  1  0  0  0
 14 16  2  0  0  0
 14 23  1  0  0  0
 15 16  1  0  0  0
 15 24  1  0  0  0
 16 25  1  0  0  0
M  END
> <chembl_id>
CHEMBL2002182

> <chembl_pref_name>
None

> <s_m_source_file>
sdf/inactives_sanitized.sdf

> <i_m_source_file_index>
197

> <i_lp_mmshare_version>
49012

> <i_m_ct_stereo_status>
1

> <i_f3d_flags>
0

> <s_epik_input>
Tz1jMVtuSF1uYyhuMTIpYyhbY0hdW2NIXVtjSF0yKS1jM1tjSF1bY0hdW2NIXVtjSF1bY0hdMw==

> <s_epik_cmdline>
J2VwaWtfcHl0aG9uJywgJy1waHQnLCAnMC41JywgJy1waCcsICc3LjUnLCAnLW50JywgJy1tYScsICcyMDAnLCAnLWltYWUnLCAnPGluZmlsZS5tYWU+JywgJy1vbWFlJywgJzxvdXRmaWxlLm1hZT4n

> <r_lp_tautomer_probability>
1

> <r_epik_Ionization_Penalty>
  0.0001

> <r_epik_Ionization_Penalty_Charging>
  0.0001

> <r_epik_Ionization_Penalty_Neutral>
  0.0000

> <r_epik_State_Penalty>
 -0.0000

> <r_epik_Charging_Adjusted_Penalty>
0.000116175451888883

> <i_epik_Tot_Q>
0

> <i_epik_Tot_abs_Q>
0

> <s_lp_Force_Field>
OPLS3e

> <r_lp_Energy>
46.722433

> <b_lp_Chiralities_Consistent>
1

> <s_lp_Variant>
sdf/inactives_sanitized.sdf:197-1

$$$$
sdf/inactives_sanitized.sdf:198
                    3D
 Schrodinger Suite 2020-1.
 36 38  0  0  1  0            999 V2000
   -0.8001    8.0396    3.3018 Br  0  0  0  0  0  0
   -3.2138    6.8901    1.6286 S   0  0  0  0  0  0
   -2.3092    2.7150   -0.4315 N   0  0  0  0  0  0
   -1.7755    1.5513   -0.8177 N   0  0  0  0  0  0
    0.1965    0.3920   -0.4170 N   0  0  0  0  0  0
    5.7731   -0.1997    0.3088 N   0  0  0  0  0  0
   -1.5231    3.4348    0.4302 C   0  0  0  0  0  0
   -1.8875    4.7258    0.9932 C   0  0  0  0  0  0
   -0.6069    1.4902   -0.2212 C   0  0  0  0  0  0
   -0.4056    2.6281    0.5791 C   0  0  0  0  0  0
   -1.0306    5.5010    1.7915 C   0  0  0  0  0  0
   -3.1171    5.3599    0.8197 C   0  0  0  0  0  0
    1.5856    0.2921   -0.2279 C   0  0  0  0  0  0
   -1.5957    6.6966    2.2142 C   0  0  0  0  0  0
    4.3707   -0.0354    0.1208 C   0  0  0  0  0  0
    2.1287   -0.9778   -0.0437 C   0  0  0  0  0  0
    2.4366    1.4004   -0.2542 C   0  0  0  0  0  0
    3.4998   -1.1391    0.1349 C   0  0  0  0  0  0
    3.8075    1.2374   -0.0767 C   0  0  0  0  0  0
    6.3608   -1.5394    0.2748 C   0  0  0  0  0  0
    6.6810    0.9118    0.0232 C   0  0  0  0  0  0
   -3.2175    3.0143   -0.7559 H   0  0  0  0  0  0
   -0.2422   -0.5071   -0.5529 H   0  0  0  0  0  0
    0.4533    2.8375    1.1990 H   0  0  0  0  0  0
   -0.0267    5.2013    2.0546 H   0  0  0  0  0  0
   -3.9666    5.0010    0.2578 H   0  0  0  0  0  0
    1.4906   -1.8501   -0.0315 H   0  0  0  0  0  0
    2.0538    2.3943   -0.4288 H   0  0  0  0  0  0
    3.8635   -2.1445    0.2797 H   0  0  0  0  0  0
    4.4169    2.1273   -0.1053 H   0  0  0  0  0  0
    5.8931   -2.1940    1.0103 H   0  0  0  0  0  0
    7.4313   -1.5209    0.4818 H   0  0  0  0  0  0
    6.2171   -1.9887   -0.7086 H   0  0  0  0  0  0
    6.4187    1.7968    0.6026 H   0  0  0  0  0  0
    6.6264    1.1788   -1.0328 H   0  0  0  0  0  0
    7.7176    0.6618    0.2526 H   0  0  0  0  0  0
  1 14  1  0  0  0
  2 12  1  0  0  0
  2 14  1  0  0  0
  3  4  1  0  0  0
  3  7  1  0  0  0
  3 22  1  0  0  0
  4  9  2  0  0  0
  5  9  1  0  0  0
  5 13  1  0  0  0
  5 23  1  0  0  0
  6 15  1  0  0  0
  6 20  1  0  0  0
  6 21  1  0  0  0
  7  8  1  0  0  0
  7 10  2  0  0  0
  8 11  1  0  0  0
  8 12  2  0  0  0
  9 10  1  0  0  0
 10 24  1  0  0  0
 11 14  2  0  0  0
 11 25  1  0  0  0
 12 26  1  0  0  0
 13 16  2  0  0  0
 13 17  1  0  0  0
 15 18  2  0  0  0
 15 19  1  0  0  0
 16 18  1  0  0  0
 16 27  1  0  0  0
 17 19  2  0  0  0
 17 28  1  0  0  0
 18 29  1  0  0  0
 19 30  1  0  0  0
 20 31  1  0  0  0
 20 32  1  0  0  0
 20 33  1  0  0  0
 21 34  1  0  0  0
 21 35  1  0  0  0
 21 36  1  0  0  0
M  END
> <chembl_id>
CHEMBL1984236

> <chembl_pref_name>
None

> <s_m_source_file>
sdf/inactives_sanitized.sdf

> <i_m_source_file_index>
198

> <i_lp_mmshare_version>
49012

> <i_m_ct_stereo_status>
1

> <i_f3d_flags>
0

> <s_epik_input>
W2NIXTFzYyhCcilbY0hdYzEtYzJbbkhdbmMoW2NIXTIpW05IXWMzW2NIXVtjSF1jKE4oW0NIM10pW0NIM10pW2NIXVtjSF0z

> <s_epik_cmdline>
J2VwaWtfcHl0aG9uJywgJy1waHQnLCAnMC41JywgJy1waCcsICc3LjUnLCAnLW50JywgJy1tYScsICcyMDAnLCAnLWltYWUnLCAnPGluZmlsZS5tYWU+JywgJy1vbWFlJywgJzxvdXRmaWxlLm1hZT4n

> <r_lp_tautomer_probability>
0.842599999161192

> <r_epik_Ionization_Penalty>
  0.0153

> <r_epik_Ionization_Penalty_Charging>
  0.0000

> <r_epik_Ionization_Penalty_Neutral>
  0.0153

> <r_epik_State_Penalty>
  0.0120

> <r_epik_Charging_Adjusted_Penalty>
0.011991513992773

> <i_epik_Tot_Q>
0

> <i_epik_Tot_abs_Q>
0

> <s_lp_Force_Field>
OPLS3e

> <r_lp_Energy>
31.235603

> <b_lp_Chiralities_Consistent>
1

> <s_lp_Variant>
sdf/inactives_sanitized.sdf:198-1

$$$$
sdf/inactives_sanitized.sdf:199
                    3D
 Schrodinger Suite 2020-1.
 45 48  0  0  1  0            999 V2000
   -6.9005   -4.9217   -0.2513 I   0  0  0  0  0  0
    1.9928    1.1409   -0.0142 O   0  0  0  0  0  0
   -1.4631    4.6753   -0.1407 O   0  0  0  0  0  0
    2.1583   -1.1340    0.0309 O   0  0  0  0  0  0
   -2.1536   -0.8294    0.0009 N   0  0  0  0  0  0
   -2.2057    0.5658    0.0289 C   0  0  0  0  0  0
   -0.8728    1.0562   -0.0377 C   0  0  0  0  0  0
    0.0023   -0.0974   -0.0187 C   0  0  0  0  0  0
   -0.8217   -1.2268   -0.0253 C   0  0  0  0  0  0
   -3.3244    1.4639    0.1070 C   0  0  0  0  0  0
   -3.0795    2.8704    0.0375 C   0  0  0  0  0  0
   -3.2354   -1.7310   -0.0431 C   0  0  0  0  0  0
   -0.6704    2.4470   -0.0920 C   0  0  0  0  0  0
   -1.7427    3.3325   -0.0711 C   0  0  0  0  0  0
    1.4780   -0.1065   -0.0025 C   0  0  0  0  0  0
   -4.6728    1.0261    0.2726 C   0  0  0  0  0  0
   -4.1815    3.7701    0.0884 C   0  0  0  0  0  0
   -0.4608   -2.7111   -0.0580 C   0  0  0  0  0  0
   -3.9727   -1.8609   -1.2240 C   0  0  0  0  0  0
   -3.5241   -2.5250    1.0703 C   0  0  0  0  0  0
   -5.7226    1.9366    0.3253 C   0  0  0  0  0  0
   -5.4806    3.2981    0.2262 C   0  0  0  0  0  0
   -5.0237   -2.7718   -1.2791 C   0  0  0  0  0  0
   -4.5748   -3.4361    1.0084 C   0  0  0  0  0  0
   -5.3214   -3.5535   -0.1634 C   0  0  0  0  0  0
    3.3973    1.3593    0.0076 C   0  0  0  0  0  0
    3.6715    2.8663   -0.0037 C   0  0  0  0  0  0
   -0.5231    4.8603   -0.1983 H   0  0  0  0  0  0
    0.3245    2.8587   -0.1573 H   0  0  0  0  0  0
   -4.9229   -0.0125    0.3839 H   0  0  0  0  0  0
   -4.0115    4.8353    0.0279 H   0  0  0  0  0  0
    0.5070   -2.9062   -0.5163 H   0  0  0  0  0  0
   -1.1691   -3.3044   -0.6365 H   0  0  0  0  0  0
   -0.4329   -3.1346    0.9459 H   0  0  0  0  0  0
   -3.7384   -1.2581   -2.0899 H   0  0  0  0  0  0
   -2.9420   -2.4361    1.9766 H   0  0  0  0  0  0
   -6.7349    1.5810    0.4500 H   0  0  0  0  0  0
   -6.3047    3.9950    0.2682 H   0  0  0  0  0  0
   -5.6032   -2.8725   -2.1848 H   0  0  0  0  0  0
   -4.8077   -4.0504    1.8658 H   0  0  0  0  0  0
    3.8323    0.9089    0.9013 H   0  0  0  0  0  0
    3.8623    0.8888   -0.8602 H   0  0  0  0  0  0
    4.7431    3.0652    0.0110 H   0  0  0  0  0  0
    3.2303    3.3540    0.8663 H   0  0  0  0  0  0
    3.2584    3.3352   -0.8972 H   0  0  0  0  0  0
  1 25  1  0  0  0
  2 15  1  0  0  0
  2 26  1  0  0  0
  3 14  1  0  0  0
  3 28  1  0  0  0
  4 15  2  0  0  0
  5  6  1  0  0  0
  5  9  1  0  0  0
  5 12  1  0  0  0
  6  7  2  0  0  0
  6 10  1  0  0  0
  7  8  1  0  0  0
  7 13  1  0  0  0
  8  9  2  0  0  0
  8 15  1  0  0  0
  9 18  1  0  0  0
 10 11  2  0  0  0
 10 16  1  0  0  0
 11 14  1  0  0  0
 11 17  1  0  0  0
 12 19  2  0  0  0
 12 20  1  0  0  0
 13 14  2  0  0  0
 13 29  1  0  0  0
 16 21  2  0  0  0
 16 30  1  0  0  0
 17 22  2  0  0  0
 17 31  1  0  0  0
 18 32  1  0  0  0
 18 33  1  0  0  0
 18 34  1  0  0  0
 19 23  1  0  0  0
 19 35  1  0  0  0
 20 24  2  0  0  0
 20 36  1  0  0  0
 21 22  1  0  0  0
 21 37  1  0  0  0
 22 38  1  0  0  0
 23 25  2  0  0  0
 23 39  1  0  0  0
 24 25  1  0  0  0
 24 40  1  0  0  0
 26 27  1  0  0  0
 26 41  1  0  0  0
 26 42  1  0  0  0
 27 43  1  0  0  0
 27 44  1  0  0  0
 27 45  1  0  0  0
M  END
> <chembl_id>
CHEMBL1970352

> <chembl_pref_name>
None

> <s_m_source_file>
sdf/inactives_sanitized.sdf

> <i_m_source_file_index>
199

> <i_lp_mmshare_version>
49012

> <i_m_ct_stereo_status>
1

> <i_f3d_flags>
0

> <s_epik_input>
W2NIXTFbY0hdYyhJKVtjSF1bY0hdYzEtbjJjKFtDSDNdKWMoQyg9TylPW0NIMl1bQ0gzXSljKGMyMylbY0hdYyhbT0hdKWM0YzNbY0hdW2NIXVtjSF1bY0hdNA==

> <s_epik_cmdline>
J2VwaWtfcHl0aG9uJywgJy1waHQnLCAnMC41JywgJy1waCcsICc3LjUnLCAnLW50JywgJy1tYScsICcyMDAnLCAnLWltYWUnLCAnPGluZmlsZS5tYWU+JywgJy1vbWFlJywgJzxvdXRmaWxlLm1hZT4n

> <r_epik_Ionization_Penalty>
  0.0272

> <r_epik_Ionization_Penalty_Charging>
  0.0000

> <r_epik_Ionization_Penalty_Neutral>
  0.0272

> <r_epik_State_Penalty>
  0.0223

> <r_epik_Charging_Adjusted_Penalty>
0.0222546112657744

> <i_epik_Tot_Q>
0

> <i_epik_Tot_abs_Q>
0

> <s_epik_Chemistry_Notes>
This compound has an ester and may undergo hydrolysis at high or low pH.

> <s_lp_Force_Field>
OPLS3e

> <r_lp_Energy>
41.44507

> <b_lp_Chiralities_Consistent>
1

> <s_lp_Variant>
sdf/inactives_sanitized.sdf:199-1

$$$$
sdf/inactives_sanitized.sdf:200
                    3D
 Schrodinger Suite 2020-1.
 67 70  0  0  1  0            999 V2000
   -5.4887   -3.4641   -3.1453 O   0  0  0  0  0  0
    2.1311    1.2559    0.1654 O   0  0  0  0  0  0
   -2.7007   -2.1865   -0.2042 N   0  0  0  0  0  0
   -2.4415   -3.0905    0.7598 N   0  0  0  0  0  0
   -4.0647   -1.9426   -2.2056 N   0  0  0  0  0  0
   -5.1489   -1.3759   -4.0373 N   0  0  0  0  0  0
    1.8182   -0.2678    1.8196 N   0  0  0  0  0  0
    2.3661   -3.6828    0.5155 N   0  0  0  0  0  0
   -3.6368   -2.6674   -1.1015 C   0  0  0  0  0  0
   -3.1734   -4.1574    0.5119 C   0  0  0  0  0  0
   -2.0593   -0.9202   -0.1455 C   0  0  0  0  0  0
   -3.9440   -3.9409   -0.6374 C   0  0  0  0  0  0
   -3.1249   -5.4072    1.4048 C   0  0  0  0  0  0
   -0.7264   -0.8295    0.2829 C   0  0  0  0  0  0
   -0.0681    0.4075    0.3519 C   0  0  0  0  0  0
   -2.7326    0.2499   -0.5203 C   0  0  0  0  0  0
   -4.9508   -2.3562   -3.1320 C   0  0  0  0  0  0
   -6.0207   -1.3140   -5.1500 C   0  0  0  0  0  0
   -5.9058   -0.1853   -6.0311 C   0  0  0  0  0  0
    1.3772    0.5049    0.7893 C   0  0  0  0  0  0
   -0.7543    1.5581   -0.0570 C   0  0  0  0  0  0
   -6.7892   -0.0840   -7.1548 C   0  0  0  0  0  0
   -2.0799    1.4805   -0.4811 C   0  0  0  0  0  0
   -4.5023   -5.5955    2.0786 C   0  0  0  0  0  0
   -2.0406   -5.3088    2.5107 C   0  0  0  0  0  0
   -2.8130   -6.6440    0.5308 C   0  0  0  0  0  0
   -7.0130   -2.2746   -5.4056 C   0  0  0  0  0  0
   -4.9442    0.8540   -5.8466 C   0  0  0  0  0  0
   -7.7582   -1.0901   -7.3711 C   0  0  0  0  0  0
   -6.6835    1.0230   -8.0341 C   0  0  0  0  0  0
   -7.8609   -2.1649   -6.4995 C   0  0  0  0  0  0
   -4.8699    1.9285   -6.7276 C   0  0  0  0  0  0
   -5.7319    2.0124   -7.8128 C   0  0  0  0  0  0
    3.2467   -0.5764    1.9792 C   0  0  0  0  0  0
    0.9586   -0.8654    2.8475 C   0  0  0  0  0  0
    3.8063   -1.5145    0.8923 C   0  0  0  0  0  0
    3.0009   -2.7295    0.6809 C   0  0  0  0  0  0
   -3.6753   -1.0168   -2.3059 H   0  0  0  0  0  0
   -4.6184   -0.5300   -3.8908 H   0  0  0  0  0  0
   -4.6361   -4.6449   -1.0744 H   0  0  0  0  0  0
   -0.1939   -1.7327    0.5480 H   0  0  0  0  0  0
   -3.7659    0.2241   -0.8318 H   0  0  0  0  0  0
   -0.2687    2.5238   -0.0369 H   0  0  0  0  0  0
   -2.6035    2.3776   -0.7769 H   0  0  0  0  0  0
   -4.5264   -6.4855    2.7090 H   0  0  0  0  0  0
   -5.3005   -5.6967    1.3416 H   0  0  0  0  0  0
   -4.7570   -4.7408    2.7071 H   0  0  0  0  0  0
   -2.2211   -4.4637    3.1766 H   0  0  0  0  0  0
   -1.0452   -5.1737    2.0845 H   0  0  0  0  0  0
   -2.0104   -6.2077    3.1283 H   0  0  0  0  0  0
   -2.7795   -7.5596    1.1230 H   0  0  0  0  0  0
   -1.8494   -6.5428    0.0292 H   0  0  0  0  0  0
   -3.5634   -6.7895   -0.2478 H   0  0  0  0  0  0
   -7.1640   -3.1269   -4.7645 H   0  0  0  0  0  0
   -4.2571    0.8170   -5.0142 H   0  0  0  0  0  0
   -8.4262   -1.0162   -8.2174 H   0  0  0  0  0  0
   -7.3504    1.0969   -8.8815 H   0  0  0  0  0  0
   -8.6116   -2.9224   -6.6707 H   0  0  0  0  0  0
   -4.1350    2.7038   -6.5673 H   0  0  0  0  0  0
   -5.6623    2.8518   -8.4891 H   0  0  0  0  0  0
    3.8178    0.3535    1.9832 H   0  0  0  0  0  0
    3.4241   -1.0297    2.9557 H   0  0  0  0  0  0
   -0.0743   -0.5205    2.7978 H   0  0  0  0  0  0
    1.3292   -0.6081    3.8402 H   0  0  0  0  0  0
    0.9622   -1.9524    2.7596 H   0  0  0  0  0  0
    3.8718   -0.9926   -0.0629 H   0  0  0  0  0  0
    4.8189   -1.8241    1.1504 H   0  0  0  0  0  0
  1 17  2  0  0  0
  2 20  2  0  0  0
  3  4  1  0  0  0
  3  9  1  0  0  0
  3 11  1  0  0  0
  4 10  2  0  0  0
  5  9  1  0  0  0
  5 17  1  0  0  0
  5 38  1  0  0  0
  6 17  1  0  0  0
  6 18  1  0  0  0
  6 39  1  0  0  0
  7 20  1  0  0  0
  7 34  1  0  0  0
  7 35  1  0  0  0
  8 37  3  0  0  0
  9 12  2  0  0  0
 10 12  1  0  0  0
 10 13  1  0  0  0
 11 14  2  0  0  0
 11 16  1  0  0  0
 12 40  1  0  0  0
 13 24  1  0  0  0
 13 25  1  0  0  0
 13 26  1  0  0  0
 14 15  1  0  0  0
 14 41  1  0  0  0
 15 20  1  0  0  0
 15 21  2  0  0  0
 16 23  2  0  0  0
 16 42  1  0  0  0
 18 19  1  0  0  0
 18 27  2  0  0  0
 19 22  2  0  0  0
 19 28  1  0  0  0
 21 23  1  0  0  0
 21 43  1  0  0  0
 22 29  1  0  0  0
 22 30  1  0  0  0
 23 44  1  0  0  0
 24 45  1  0  0  0
 24 46  1  0  0  0
 24 47  1  0  0  0
 25 48  1  0  0  0
 25 49  1  0  0  0
 25 50  1  0  0  0
 26 51  1  0  0  0
 26 52  1  0  0  0
 26 53  1  0  0  0
 27 31  1  0  0  0
 27 54  1  0  0  0
 28 32  2  0  0  0
 28 55  1  0  0  0
 29 31  2  0  0  0
 29 56  1  0  0  0
 30 33  2  0  0  0
 30 57  1  0  0  0
 31 58  1  0  0  0
 32 33  1  0  0  0
 32 59  1  0  0  0
 33 60  1  0  0  0
 34 36  1  0  0  0
 34 61  1  0  0  0
 34 62  1  0  0  0
 35 63  1  0  0  0
 35 64  1  0  0  0
 35 65  1  0  0  0
 36 37  1  0  0  0
 36 66  1  0  0  0
 36 67  1  0  0  0
M  END
> <chembl_id>
CHEMBL1974998

> <chembl_pref_name>
None

> <s_m_source_file>
sdf/inactives_sanitized.sdf

> <i_m_source_file_index>
200

> <i_lp_mmshare_version>
49012

> <i_m_ct_stereo_status>
1

> <i_f3d_flags>
0

> <s_epik_input>
W2NIXTFbY0hdW2NIXVtjSF1jKGMxMilbY0hdW2NIXVtjSF1jMltOSF1DKD1PKVtOSF1jM1tjSF1jKEMoW0NIM10pKFtDSDNdKVtDSDNdKW5uMy1jNFtjSF1jKFtjSF1bY0hdW2NIXTQpQyg9TylOKFtDSDNdKVtDSDJdW0NIMl1DI04=

> <s_epik_cmdline>
J2VwaWtfcHl0aG9uJywgJy1waHQnLCAnMC41JywgJy1waCcsICc3LjUnLCAnLW50JywgJy1tYScsICcyMDAnLCAnLWltYWUnLCAnPGluZmlsZS5tYWU+JywgJy1vbWFlJywgJzxvdXRmaWxlLm1hZT4n

> <r_lp_tautomer_probability>
1

> <r_epik_Ionization_Penalty>
  0.0000

> <r_epik_Ionization_Penalty_Charging>
  0.0000

> <r_epik_Ionization_Penalty_Neutral>
  0.0000

> <r_epik_State_Penalty>
 -0.0000

> <r_epik_Charging_Adjusted_Penalty>
0

> <i_epik_Tot_Q>
0

> <i_epik_Tot_abs_Q>
0

> <s_lp_Force_Field>
OPLS3e

> <r_lp_Energy>
65.3113

> <b_lp_Chiralities_Consistent>
1

> <s_lp_Variant>
sdf/inactives_sanitized.sdf:200-1

$$$$
sdf/inactives_sanitized.sdf:201
                    3D
 Schrodinger Suite 2020-1.
 47 50  0  0  1  0            999 V2000
   -5.5837    5.9862    0.3863 F   0  0  0  0  0  0
   -3.4273    6.0386    0.4457 F   0  0  0  0  0  0
   -4.5443    5.4437    2.2035 F   0  0  0  0  0  0
   -0.3163    2.7087    0.0273 O   0  0  0  0  0  0
    8.9408    1.7669   -1.2401 N   0  0  0  0  0  0
    9.9920   -0.5069    0.0494 N   0  0  0  0  0  0
    6.1258    2.1499   -1.3397 N   0  0  0  0  0  0
    0.1459    0.4685   -0.0360 N   0  0  0  0  0  0
   -1.9647    1.1168    0.0008 N   0  0  0  0  0  0
    5.8390    0.0944   -0.0585 C   0  0  0  0  0  0
    6.6808    1.0438   -0.6784 C   0  0  0  0  0  0
    8.1000    0.8596   -0.6491 C   0  0  0  0  0  0
    8.6458   -0.2911    0.0022 C   0  0  0  0  0  0
    4.3508    0.2232   -0.0416 C   0  0  0  0  0  0
    6.4067   -1.0211    0.5651 C   0  0  0  0  0  0
    7.7800   -1.2244    0.6041 C   0  0  0  0  0  0
   -4.4441    3.9055    0.4541 C   0  0  0  0  0  0
    3.5491   -0.8110   -0.5362 C   0  0  0  0  0  0
    3.7353    1.3634    0.4865 C   0  0  0  0  0  0
   -4.5026    5.3742    0.8732 C   0  0  0  0  0  0
    1.5528    0.4473   -0.0159 C   0  0  0  0  0  0
   -3.1479    1.8786    0.0455 C   0  0  0  0  0  0
   -3.2183    3.2272    0.4377 C   0  0  0  0  0  0
    2.1616   -0.7024   -0.5207 C   0  0  0  0  0  0
    2.3481    1.4798    0.5026 C   0  0  0  0  0  0
   10.2750    1.5331   -1.1816 C   0  0  0  0  0  0
   10.7936    0.4103   -0.5451 C   0  0  0  0  0  0
   -0.6815    1.5325    0.0088 C   0  0  0  0  0  0
   -5.6075    3.2206    0.0837 C   0  0  0  0  0  0
   -4.3247    1.2125   -0.3080 C   0  0  0  0  0  0
   -5.5478    1.8802   -0.2924 C   0  0  0  0  0  0
    6.7383    2.8159   -1.7891 H   0  0  0  0  0  0
    5.1221    2.2581   -1.3727 H   0  0  0  0  0  0
   -0.2865   -0.4342   -0.1663 H   0  0  0  0  0  0
   -2.1125    0.1232   -0.0982 H   0  0  0  0  0  0
    5.7672   -1.7512    1.0408 H   0  0  0  0  0  0
    8.1884   -2.0959    1.0960 H   0  0  0  0  0  0
    4.0028   -1.7044   -0.9408 H   0  0  0  0  0  0
    4.3346    2.1643    0.8950 H   0  0  0  0  0  0
   -2.3362    3.7647    0.7482 H   0  0  0  0  0  0
    1.5657   -1.5146   -0.9127 H   0  0  0  0  0  0
    1.9163    2.3687    0.9358 H   0  0  0  0  0  0
   10.9224    2.2579   -1.6527 H   0  0  0  0  0  0
   11.8582    0.2321   -0.5052 H   0  0  0  0  0  0
   -6.5651    3.7206    0.0915 H   0  0  0  0  0  0
   -4.2989    0.1731   -0.6036 H   0  0  0  0  0  0
   -6.4508    1.3578   -0.5724 H   0  0  0  0  0  0
  1 20  1  0  0  0
  2 20  1  0  0  0
  3 20  1  0  0  0
  4 28  2  0  0  0
  5 12  2  0  0  0
  5 26  1  0  0  0
  6 13  2  0  0  0
  6 27  1  0  0  0
  7 11  1  0  0  0
  7 32  1  0  0  0
  7 33  1  0  0  0
  8 21  1  0  0  0
  8 28  1  0  0  0
  8 34  1  0  0  0
  9 22  1  0  0  0
  9 28  1  0  0  0
  9 35  1  0  0  0
 10 11  2  0  0  0
 10 14  1  0  0  0
 10 15  1  0  0  0
 11 12  1  0  0  0
 12 13  1  0  0  0
 13 16  1  0  0  0
 14 18  2  0  0  0
 14 19  1  0  0  0
 15 16  2  0  0  0
 15 36  1  0  0  0
 16 37  1  0  0  0
 17 20  1  0  0  0
 17 23  2  0  0  0
 17 29  1  0  0  0
 18 24  1  0  0  0
 18 38  1  0  0  0
 19 25  2  0  0  0
 19 39  1  0  0  0
 21 24  2  0  0  0
 21 25  1  0  0  0
 22 23  1  0  0  0
 22 30  2  0  0  0
 23 40  1  0  0  0
 24 41  1  0  0  0
 25 42  1  0  0  0
 26 27  2  0  0  0
 26 43  1  0  0  0
 27 44  1  0  0  0
 29 31  2  0  0  0
 29 45  1  0  0  0
 30 31  1  0  0  0
 30 46  1  0  0  0
 31 47  1  0  0  0
M  END
> <chembl_id>
CHEMBL2004438

> <chembl_pref_name>
None

> <s_m_source_file>
sdf/inactives_sanitized.sdf

> <i_m_source_file_index>
201

> <i_lp_mmshare_version>
49012

> <i_m_ct_stereo_status>
1

> <i_f3d_flags>
0

> <s_epik_input>
RkMoRikoRiljMVtjSF1jKFtjSF1bY0hdW2NIXTEpW05IXUMoPU8pW05IXWMoW2NIXVtjSF0yKVtjSF1bY0hdYzItYyhjM1tOSDJdKVtjSF1bY0hdYyhjMzQpbltjSF1bY0hdbjQ=

> <s_epik_cmdline>
J2VwaWtfcHl0aG9uJywgJy1waHQnLCAnMC41JywgJy1waCcsICc3LjUnLCAnLW50JywgJy1tYScsICcyMDAnLCAnLWltYWUnLCAnPGluZmlsZS5tYWU+JywgJy1vbWFlJywgJzxvdXRmaWxlLm1hZT4n

> <r_lp_tautomer_probability>
1

> <r_epik_Ionization_Penalty>
  0.0000

> <r_epik_Ionization_Penalty_Charging>
  0.0000

> <r_epik_Ionization_Penalty_Neutral>
  0.0000

> <r_epik_State_Penalty>
 -0.0000

> <r_epik_Charging_Adjusted_Penalty>
0

> <i_epik_Tot_Q>
0

> <i_epik_Tot_abs_Q>
0

> <s_lp_Force_Field>
OPLS3e

> <r_lp_Energy>
61.613304

> <b_lp_Chiralities_Consistent>
1

> <s_lp_Variant>
sdf/inactives_sanitized.sdf:201-1

$$$$
sdf/inactives_sanitized.sdf:202
                    3D
 Schrodinger Suite 2020-1.
 54 56  0  0  1  0            999 V2000
   -4.2608    4.2147   -1.8353 N   0  0  0  0  0  0
   -3.6889    5.0752   -0.9487 C   0  0  0  0  0  0
   -5.4060    4.6100   -2.4499 C   0  0  0  0  0  0
   -7.1663    3.6704   -4.0617 C   0  0  0  0  0  0
   -5.9487    3.6896   -3.3589 N   0  0  0  0  0  0
   -4.1685    6.3104   -0.6523 N   0  0  0  0  0  0
   -8.3466    4.1554   -3.4817 C   0  0  0  0  0  0
   -2.4941    4.7197   -0.3035 N   0  0  0  0  0  0
   -7.2088    3.1617   -5.3714 C   0  0  0  0  0  0
   -5.9636    5.8737   -2.2072 C   0  0  0  0  0  0
   -8.4134    3.1482   -6.0779 C   0  0  0  0  0  0
   -9.5464    4.1409   -4.1931 C   0  0  0  0  0  0
   -1.7825    3.5085   -0.2503 C   0  0  0  0  0  0
   -5.3049    6.6941   -1.2894 C   0  0  0  0  0  0
    0.3920   -0.0615   -0.0623 O   0  0  0  0  0  0
    2.2860   -1.5454    0.1345 C   0  0  1  0  0  0
    2.3461   -3.7494    1.4720 N   0  3  0  0  0  0
    1.7415   -2.3283    1.3549 C   0  0  0  0  0  0
   -0.2715    1.1496   -0.1090 C   0  0  0  0  0  0
   -5.7915    2.5420   -6.1523 Cl  0  0  0  0  0  0
    1.8047   -0.0821    0.1288 C   0  0  0  0  0  0
   -9.5793    3.6378   -5.4923 C   0  0  0  0  0  0
  -10.9900    4.7425   -3.4632 Cl  0  0  0  0  0  0
   -2.4056    2.2617   -0.3721 C   0  0  0  0  0  0
   -0.4050    3.5689   -0.0345 C   0  0  0  0  0  0
   -1.6512    1.0939   -0.3054 C   0  0  0  0  0  0
    0.3496    2.4003    0.0307 C   0  0  0  0  0  0
    3.7028   -1.5540    0.1391 O   0  0  0  0  0  0
    1.9746   -4.6732    0.2938 C   0  0  0  0  0  0
    1.9761   -4.4032    2.8177 C   0  0  0  0  0  0
   -5.3273    2.9265   -3.5857 H   0  0  0  0  0  0
   -8.3456    4.5303   -2.4688 H   0  0  0  0  0  0
   -2.0925    5.4633    0.2490 H   0  0  0  0  0  0
   -6.8512    6.2254   -2.7103 H   0  0  0  0  0  0
   -8.4465    2.7575   -7.0845 H   0  0  0  0  0  0
   -5.6796    7.6809   -1.0602 H   0  0  0  0  0  0
    1.9369   -2.0110   -0.7878 H   0  0  0  0  0  0
    0.6611   -2.4760    1.3046 H   0  0  0  0  0  0
    1.9855   -1.8210    2.2900 H   0  0  0  0  0  0
    2.0734    0.4087    1.0668 H   0  0  0  0  0  0
    2.2895    0.4654   -0.6825 H   0  0  0  0  0  0
  -10.5062    3.6226   -6.0468 H   0  0  0  0  0  0
   -3.4734    2.1796   -0.5071 H   0  0  0  0  0  0
    0.0906    4.5232    0.0749 H   0  0  0  0  0  0
   -2.1437    0.1377   -0.4050 H   0  0  0  0  0  0
    1.4137    2.4863    0.1891 H   0  0  0  0  0  0
    4.0159   -1.0430   -0.6115 H   0  0  0  0  0  0
    0.8867   -4.7479    0.2583 H   0  0  0  0  0  0
    2.4373   -5.6427    0.4829 H   0  0  0  0  0  0
    2.3805   -4.2331   -0.6165 H   0  0  0  0  0  0
    0.8907   -4.5122    2.8491 H   0  0  0  0  0  0
    2.3378   -3.7451    3.6090 H   0  0  0  0  0  0
    2.4800   -5.3696    2.8601 H   0  0  0  0  0  0
    3.3514   -3.6413    1.4648 H   0  0  0  0  0  0
  1  2  2  0  0  0
  1  3  1  0  0  0
  2  6  1  0  0  0
  2  8  1  0  0  0
  3  5  1  0  0  0
  3 10  2  0  0  0
  4  5  1  0  0  0
  4  7  2  0  0  0
  4  9  1  0  0  0
  5 31  1  0  0  0
  6 14  2  0  0  0
  7 12  1  0  0  0
  7 32  1  0  0  0
  8 13  1  0  0  0
  8 33  1  0  0  0
  9 11  2  0  0  0
  9 20  1  0  0  0
 10 14  1  0  0  0
 10 34  1  0  0  0
 11 22  1  0  0  0
 11 35  1  0  0  0
 12 23  1  0  0  0
 12 22  2  0  0  0
 13 24  1  0  0  0
 13 25  2  0  0  0
 14 36  1  0  0  0
 15 19  1  0  0  0
 15 21  1  0  0  0
 16 21  1  0  0  0
 16 18  1  0  0  0
 16 28  1  0  0  0
 16 37  1  0  0  0
 17 18  1  0  0  0
 17 29  1  0  0  0
 17 30  1  0  0  0
 17 54  1  0  0  0
 18 38  1  0  0  0
 18 39  1  0  0  0
 19 27  2  0  0  0
 19 26  1  0  0  0
 21 40  1  0  0  0
 21 41  1  0  0  0
 22 42  1  0  0  0
 24 26  2  0  0  0
 24 43  1  0  0  0
 25 27  1  0  0  0
 25 44  1  0  0  0
 26 45  1  0  0  0
 27 46  1  0  0  0
 28 47  1  0  0  0
 29 48  1  0  0  0
 29 49  1  0  0  0
 29 50  1  0  0  0
 30 51  1  0  0  0
 30 52  1  0  0  0
 30 53  1  0  0  0
M  CHG  1  17   1
M  END
> <chembl_id>
CHEMBL101311

> <chembl_pref_name>
None

> <s_m_source_file>
sdf/inactives_sanitized.sdf

> <i_m_source_file_index>
202

> <i_lp_mmshare_version>
49012

> <i_m_ct_stereo_status>
1

> <i_f3d_flags>
0

> <s_epik_input>
Q2xjMVtjSF1bY0hdYyhDbClbY0hdYzFbTkhdYyhbY0hdW2NIXW4yKW5jMltOSF1jM1tjSF1bY0hdYyhbY0hdW2NIXTMpT1tDSDJdW0NAQEhdKFtPSF0pW0NIMl1OKFtDSDNdKVtDSDNd

> <s_epik_cmdline>
J2VwaWtfcHl0aG9uJywgJy1waHQnLCAnMC41JywgJy1waCcsICc3LjUnLCAnLW50JywgJy1tYScsICcyMDAnLCAnLWltYWUnLCAnPGluZmlsZS5tYWU+JywgJy1vbWFlJywgJzxvdXRmaWxlLm1hZT4n

> <r_lp_tautomer_probability>
0.999999624730965

> <r_epik_Ionization_Penalty>
  0.3017

> <r_epik_Ionization_Penalty_Charging>
  0.2931

> <r_epik_Ionization_Penalty_Neutral>
  0.0086

> <r_epik_State_Penalty>
  0.2863

> <r_epik_Charging_Adjusted_Penalty>
0.579363961025436

> <i_epik_Tot_Q>
1

> <i_epik_Tot_abs_Q>
1

> <s_lp_Force_Field>
OPLS3e

> <r_lp_Energy>
49.569865

> <b_lp_Chiralities_Consistent>
1

> <s_lp_Variant>
sdf/inactives_sanitized.sdf:202-1

$$$$
sdf/inactives_sanitized.sdf:202
                    3D
 Schrodinger Suite 2020-1.
 53 55  0  0  1  0            999 V2000
   -4.8094    5.8714    0.2980 N   0  0  0  0  0  0
   -4.1048    4.8363    0.8244 C   0  0  0  0  0  0
   -5.8448    6.3675    1.0311 C   0  0  0  0  0  0
   -6.5457    8.2101   -0.6280 C   0  0  0  0  0  0
   -6.6280    7.4237    0.5377 N   0  0  0  0  0  0
   -4.3546    4.2652    2.0344 N   0  0  0  0  0  0
   -5.3267    8.4438   -1.2823 C   0  0  0  0  0  0
   -3.0265    4.3857    0.0472 N   0  0  0  0  0  0
   -7.7198    8.7705   -1.1628 C   0  0  0  0  0  0
   -6.1753    5.8291    2.2787 C   0  0  0  0  0  0
   -7.6638    9.5408   -2.3263 C   0  0  0  0  0  0
   -5.2775    9.2138   -2.4445 C   0  0  0  0  0  0
   -2.1848    3.2673    0.1725 C   0  0  0  0  0  0
   -5.3945    4.7706    2.7458 C   0  0  0  0  0  0
    0.3543   -0.0445    0.4705 O   0  0  0  0  0  0
    2.3446   -1.3999    0.1816 C   0  0  1  0  0  0
    4.3430   -1.1179   -1.3912 N   0  0  0  0  0  0
    3.8803   -1.4668   -0.0379 C   0  0  0  0  0  0
   -0.4383    1.0798    0.3397 C   0  0  0  0  0  0
   -9.2648    8.5306   -0.4149 Cl  0  0  0  0  0  0
    1.6811   -0.0290   -0.0528 C   0  0  0  0  0  0
   -6.4470    9.7612   -2.9673 C   0  0  0  0  0  0
   -3.7672    9.4918   -3.2323 Cl  0  0  0  0  0  0
   -2.6014    2.0755    0.7749 C   0  0  0  0  0  0
   -0.8991    3.3538   -0.3628 C   0  0  0  0  0  0
   -1.7297    0.9939    0.8595 C   0  0  0  0  0  0
   -0.0268    2.2720   -0.2763 C   0  0  0  0  0  0
    1.7093   -2.3724   -0.6294 O   0  0  0  0  0  0
    4.6109    0.3136   -1.5335 C   0  0  0  0  0  0
    5.5736   -1.8407   -1.7039 C   0  0  0  0  0  0
   -7.4493    7.6119    1.0940 H   0  0  0  0  0  0
   -4.4016    8.0500   -0.8908 H   0  0  0  0  0  0
   -2.8553    4.9443   -0.7762 H   0  0  0  0  0  0
   -6.9988    6.2110    2.8649 H   0  0  0  0  0  0
   -8.5670    9.9690   -2.7365 H   0  0  0  0  0  0
   -5.5958    4.3127    3.7030 H   0  0  0  0  0  0
    2.1572   -1.6886    1.2169 H   0  0  0  0  0  0
    4.1860   -2.4866    0.2057 H   0  0  0  0  0  0
    4.3895   -0.8514    0.7064 H   0  0  0  0  0  0
    2.2580    0.7457    0.4556 H   0  0  0  0  0  0
    1.6648    0.2061   -1.1187 H   0  0  0  0  0  0
   -6.4144   10.3582   -3.8669 H   0  0  0  0  0  0
   -3.5998    1.9668    1.1703 H   0  0  0  0  0  0
   -0.5651    4.2627   -0.8426 H   0  0  0  0  0  0
   -2.0621    0.0795    1.3288 H   0  0  0  0  0  0
    0.9627    2.3779   -0.6939 H   0  0  0  0  0  0
    0.7623   -2.3202   -0.4789 H   0  0  0  0  0  0
    4.9581    0.5387   -2.5429 H   0  0  0  0  0  0
    5.3784    0.6490   -0.8336 H   0  0  0  0  0  0
    3.7239    0.9198   -1.3676 H   0  0  0  0  0  0
    5.9141   -1.6091   -2.7142 H   0  0  0  0  0  0
    5.4082   -2.9181   -1.6607 H   0  0  0  0  0  0
    6.3764   -1.5923   -1.0073 H   0  0  0  0  0  0
  1  2  2  0  0  0
  1  3  1  0  0  0
  2  6  1  0  0  0
  2  8  1  0  0  0
  3  5  1  0  0  0
  3 10  2  0  0  0
  4  5  1  0  0  0
  4  7  2  0  0  0
  4  9  1  0  0  0
  5 31  1  0  0  0
  6 14  2  0  0  0
  7 12  1  0  0  0
  7 32  1  0  0  0
  8 13  1  0  0  0
  8 33  1  0  0  0
  9 11  2  0  0  0
  9 20  1  0  0  0
 10 14  1  0  0  0
 10 34  1  0  0  0
 11 22  1  0  0  0
 11 35  1  0  0  0
 12 23  1  0  0  0
 12 22  2  0  0  0
 13 24  1  0  0  0
 13 25  2  0  0  0
 14 36  1  0  0  0
 15 19  1  0  0  0
 15 21  1  0  0  0
 16 21  1  0  0  0
 16 18  1  0  0  0
 16 28  1  0  0  0
 16 37  1  0  0  0
 17 18  1  0  0  0
 17 29  1  0  0  0
 17 30  1  0  0  0
 18 38  1  0  0  0
 18 39  1  0  0  0
 19 27  2  0  0  0
 19 26  1  0  0  0
 21 40  1  0  0  0
 21 41  1  0  0  0
 22 42  1  0  0  0
 24 26  2  0  0  0
 24 43  1  0  0  0
 25 27  1  0  0  0
 25 44  1  0  0  0
 26 45  1  0  0  0
 27 46  1  0  0  0
 28 47  1  0  0  0
 29 48  1  0  0  0
 29 49  1  0  0  0
 29 50  1  0  0  0
 30 51  1  0  0  0
 30 52  1  0  0  0
 30 53  1  0  0  0
M  END
> <chembl_id>
CHEMBL101311

> <chembl_pref_name>
None

> <s_m_source_file>
sdf/inactives_sanitized.sdf

> <i_m_source_file_index>
202

> <i_lp_mmshare_version>
49012

> <i_m_ct_stereo_status>
1

> <i_f3d_flags>
0

> <s_epik_input>
Q2xjMVtjSF1bY0hdYyhDbClbY0hdYzFbTkhdYyhbY0hdW2NIXW4yKW5jMltOSF1jM1tjSF1bY0hdYyhbY0hdW2NIXTMpT1tDSDJdW0NAQEhdKFtPSF0pW0NIMl1OKFtDSDNdKVtDSDNd

> <s_epik_cmdline>
J2VwaWtfcHl0aG9uJywgJy1waHQnLCAnMC41JywgJy1waCcsICc3LjUnLCAnLW50JywgJy1tYScsICcyMDAnLCAnLWltYWUnLCAnPGluZmlsZS5tYWU+JywgJy1vbWFlJywgJzxvdXRmaWxlLm1hZT4n

> <r_lp_tautomer_probability>
0.999999624730965

> <r_epik_Ionization_Penalty>
  0.5661

> <r_epik_Ionization_Penalty_Charging>
  0.0000

> <r_epik_Ionization_Penalty_Neutral>
  0.5661

> <r_epik_State_Penalty>
  0.5684

> <r_epik_Charging_Adjusted_Penalty>
0.568379717203458

> <i_epik_Tot_Q>
0

> <i_epik_Tot_abs_Q>
0

> <s_lp_Force_Field>
OPLS3e

> <r_lp_Energy>
40.724971

> <b_lp_Chiralities_Consistent>
1

> <s_lp_Variant>
sdf/inactives_sanitized.sdf:202-2

$$$$
sdf/inactives_sanitized.sdf:203
                    3D
 Schrodinger Suite 2020-1.
 36 38  0  0  1  0            999 V2000
    3.6557   -5.7654   -0.9173 F   0  0  0  0  0  0
    5.4931   -4.7489   -1.4259 F   0  0  0  0  0  0
    3.9478   -4.9858   -2.9172 F   0  0  0  0  0  0
   -0.1831    2.5589    0.3066 O   0  0  0  0  0  0
    4.4116   -0.1861    0.1990 N   0  0  0  0  0  0
    0.2170    0.3563   -0.1969 N   0  0  0  0  0  0
   -1.8659    1.0883   -0.1837 N   0  0  0  0  0  0
   -2.9505    3.2048    0.3018 N   0  0  0  0  0  0
   -3.8564    6.4084    1.1140 N   0  0  0  0  0  0
    2.2137   -1.0297   -0.4581 C   0  0  0  0  0  0
    3.6290   -1.1776   -0.3058 C   0  0  0  0  0  0
    3.5070   -3.4473   -1.2095 C   0  0  0  0  0  0
    1.6177    0.2146   -0.0634 C   0  0  0  0  0  0
    4.2554   -2.3896   -0.6858 C   0  0  0  0  0  0
    4.1731   -4.7590   -1.6227 C   0  0  0  0  0  0
    1.4815   -2.1264   -0.9952 C   0  0  0  0  0  0
    2.1276   -3.3041   -1.3588 C   0  0  0  0  0  0
    2.4565    1.2103    0.4635 C   0  0  0  0  0  0
    3.8211    0.9715    0.5707 C   0  0  0  0  0  0
   -0.5736    1.4309    0.0036 C   0  0  0  0  0  0
   -3.0156    1.8932   -0.0732 C   0  0  0  0  0  0
   -4.1056    3.9120    0.3902 C   0  0  0  0  0  0
   -4.2368    1.2730   -0.3629 C   0  0  0  0  0  0
   -5.3574    3.3566    0.1155 C   0  0  0  0  0  0
   -5.4158    2.0155   -0.2666 C   0  0  0  0  0  0
   -3.9662    5.3018    0.7933 C   0  0  0  0  0  0
   -0.2541   -0.4923   -0.4736 H   0  0  0  0  0  0
   -2.0471    0.1308   -0.4462 H   0  0  0  0  0  0
    5.3256   -2.4813   -0.5625 H   0  0  0  0  0  0
    0.4122   -2.0525   -1.1272 H   0  0  0  0  0  0
    1.5438   -4.1181   -1.7643 H   0  0  0  0  0  0
    2.0894    2.1648    0.8025 H   0  0  0  0  0  0
    4.4756    1.7302    0.9740 H   0  0  0  0  0  0
   -4.2798    0.2339   -0.6573 H   0  0  0  0  0  0
   -6.2637    3.9407    0.1939 H   0  0  0  0  0  0
   -6.3677    1.5547   -0.4858 H   0  0  0  0  0  0
  1 15  1  0  0  0
  2 15  1  0  0  0
  3 15  1  0  0  0
  4 20  2  0  0  0
  5 11  2  0  0  0
  5 19  1  0  0  0
  6 13  1  0  0  0
  6 20  1  0  0  0
  6 27  1  0  0  0
  7 20  1  0  0  0
  7 21  1  0  0  0
  7 28  1  0  0  0
  8 21  2  0  0  0
  8 22  1  0  0  0
  9 26  3  0  0  0
 10 11  1  0  0  0
 10 13  2  0  0  0
 10 16  1  0  0  0
 11 14  1  0  0  0
 12 14  2  0  0  0
 12 15  1  0  0  0
 12 17  1  0  0  0
 13 18  1  0  0  0
 14 29  1  0  0  0
 16 17  2  0  0  0
 16 30  1  0  0  0
 17 31  1  0  0  0
 18 19  2  0  0  0
 18 32  1  0  0  0
 19 33  1  0  0  0
 21 23  1  0  0  0
 22 24  2  0  0  0
 22 26  1  0  0  0
 23 25  2  0  0  0
 23 34  1  0  0  0
 24 25  1  0  0  0
 24 35  1  0  0  0
 25 36  1  0  0  0
M  END
> <chembl_id>
CHEMBL1968868

> <chembl_pref_name>
None

> <s_m_source_file>
sdf/inactives_sanitized.sdf

> <i_m_source_file_index>
203

> <i_lp_mmshare_version>
49012

> <i_m_ct_stereo_status>
1

> <i_f3d_flags>
0

> <s_epik_input>
RkMoRikoRiljKFtjSF1bY0hdMSlbY0hdYyhjMTIpbltjSF1bY0hdYzJbTkhdQyg9TylbTkhdYzNuYyhDI04pW2NIXVtjSF1bY0hdMw==

> <s_epik_cmdline>
J2VwaWtfcHl0aG9uJywgJy1waHQnLCAnMC41JywgJy1waCcsICc3LjUnLCAnLW50JywgJy1tYScsICcyMDAnLCAnLWltYWUnLCAnPGluZmlsZS5tYWU+JywgJy1vbWFlJywgJzxvdXRmaWxlLm1hZT4n

> <r_lp_tautomer_probability>
1

> <r_epik_Ionization_Penalty>
  0.0005

> <r_epik_Ionization_Penalty_Charging>
  0.0000

> <r_epik_Ionization_Penalty_Neutral>
  0.0005

> <r_epik_State_Penalty>
 -0.0000

> <r_epik_Charging_Adjusted_Penalty>
0

> <i_epik_Tot_Q>
0

> <i_epik_Tot_abs_Q>
0

> <s_lp_Force_Field>
OPLS3e

> <r_lp_Energy>
46.200314

> <b_lp_Chiralities_Consistent>
1

> <s_lp_Variant>
sdf/inactives_sanitized.sdf:203-1

$$$$
sdf/inactives_sanitized.sdf:204
                    3D
 Schrodinger Suite 2020-1.
 48 52  0  0  1  0            999 V2000
   -4.5341   -2.2642    0.5090 O   0  5  0  0  0  0
   -4.2665   -1.0409    0.4933 C   0  0  0  0  0  0
   -5.1164   -0.1238    0.5651 O   0  0  0  0  0  0
   -2.8281   -0.6465    0.3806 C   0  0  0  0  0  0
   -1.9213   -1.4579   -0.3140 C   0  0  0  0  0  0
   -0.5823   -1.0902   -0.4185 C   0  0  0  0  0  0
   -0.1278    0.0869    0.1764 C   0  0  0  0  0  0
    1.2296    0.4201    0.0318 N   0  0  0  0  0  0
    2.1032    1.1303    0.8696 C   0  0  0  0  0  0
    3.3092    1.4396    0.3332 N   0  0  0  0  0  0
    4.1735    2.1171    1.1300 C   0  0  0  0  0  0
    3.8703    2.4832    2.4458 C   0  0  0  0  0  0
    4.8294    3.2592    3.3390 C   0  0  0  0  0  0
    5.2735    2.4676    4.4693 N   0  0  0  0  0  0
    4.4395    2.1602    5.3933 C   0  0  0  0  0  0
    2.9885    2.5142    5.4467 C   0  0  0  0  0  0
    2.4352    2.8838    6.6868 C   0  0  0  0  0  0
    1.0850    3.1915    6.8234 C   0  0  0  0  0  0
    0.4499    3.6379    8.3650 Cl  0  0  0  0  0  0
    0.2500    3.1383    5.7159 C   0  0  0  0  0  0
    0.7695    2.7810    4.4771 C   0  0  0  0  0  0
    2.1302    2.4636    4.3143 C   0  0  0  0  0  0
    2.6015    2.1142    2.9288 C   0  0  0  0  0  0
    1.7197    1.4374    2.1373 N   0  0  0  0  0  0
    4.9501    1.3532    6.5129 C   0  0  0  0  0  0
    4.7226   -0.0330    6.5423 C   0  0  0  0  0  0
    4.0339   -0.6506    5.5515 F   0  0  0  0  0  0
    5.2068   -0.7988    7.6036 C   0  0  0  0  0  0
    5.9196   -0.1951    8.6378 C   0  0  0  0  0  0
    6.1518    1.1789    8.6138 C   0  0  0  0  0  0
    5.6721    1.9549    7.5579 C   0  0  0  0  0  0
    5.9120    3.2889    7.5648 F   0  0  0  0  0  0
   -1.0304    0.9084    0.8597 C   0  0  0  0  0  0
   -2.3694    0.5418    0.9641 C   0  0  0  0  0  0
   -2.2475   -2.3771   -0.7803 H   0  0  0  0  0  0
    0.0999   -1.7293   -0.9610 H   0  0  0  0  0  0
    1.6317    0.1535   -0.8550 H   0  0  0  0  0  0
    5.1290    2.3664    0.6921 H   0  0  0  0  0  0
    5.7066    3.5570    2.7632 H   0  0  0  0  0  0
    4.3704    4.1962    3.6647 H   0  0  0  0  0  0
    3.0534    2.9395    7.5714 H   0  0  0  0  0  0
   -0.7990    3.3773    5.8111 H   0  0  0  0  0  0
    0.0943    2.7623    3.6336 H   0  0  0  0  0  0
    5.0294   -1.8641    7.6246 H   0  0  0  0  0  0
    6.2926   -0.7917    9.4572 H   0  0  0  0  0  0
    6.7052    1.6438    9.4166 H   0  0  0  0  0  0
   -0.7109    1.8385    1.3050 H   0  0  0  0  0  0
   -3.0467    1.1916    1.5003 H   0  0  0  0  0  0
  1  2  1  0  0  0
  2  3  2  0  0  0
  2  4  1  0  0  0
  4  5  2  0  0  0
  4 34  1  0  0  0
  5  6  1  0  0  0
  5 35  1  0  0  0
  6  7  2  0  0  0
  6 36  1  0  0  0
  7  8  1  0  0  0
  7 33  1  0  0  0
  8  9  1  0  0  0
  8 37  1  0  0  0
  9 10  2  0  0  0
  9 24  1  0  0  0
 10 11  1  0  0  0
 11 12  2  0  0  0
 11 38  1  0  0  0
 12 13  1  0  0  0
 12 23  1  0  0  0
 13 14  1  0  0  0
 13 39  1  0  0  0
 13 40  1  0  0  0
 14 15  2  0  0  0
 15 16  1  0  0  0
 15 25  1  0  0  0
 16 17  2  0  0  0
 16 22  1  0  0  0
 17 18  1  0  0  0
 17 41  1  0  0  0
 18 19  1  0  0  0
 18 20  2  0  0  0
 20 21  1  0  0  0
 20 42  1  0  0  0
 21 22  2  0  0  0
 21 43  1  0  0  0
 22 23  1  0  0  0
 23 24  2  0  0  0
 25 26  2  0  0  0
 25 31  1  0  0  0
 26 27  1  0  0  0
 26 28  1  0  0  0
 28 29  2  0  0  0
 28 44  1  0  0  0
 29 30  1  0  0  0
 29 45  1  0  0  0
 30 31  2  0  0  0
 30 46  1  0  0  0
 31 32  1  0  0  0
 33 34  2  0  0  0
 33 47  1  0  0  0
 34 48  1  0  0  0
M  CHG  1   1  -1
M  END
> <chembl_id>
CHEMBL259084

> <chembl_pref_name>
MLN-8054

> <s_m_source_file>
sdf/inactives_sanitized.sdf

> <i_m_source_file_index>
204

> <i_lp_mmshare_version>
49012

> <i_m_ct_stereo_status>
1

> <i_f3d_flags>
0

> <s_epik_input>
W09IXUMoPU8pYzFbY0hdW2NIXWMoW2NIXVtjSF0xKVtOSF1jKG5bY0hdMiluYyhjMjMpYzRjKFtjSF1jKENsKVtjSF1bY0hdNClDKD1OW0NIMl0zKWM1YyhGKVtjSF1bY0hdW2NIXWM1Rg==

> <s_epik_cmdline>
J2VwaWtfcHl0aG9uJywgJy1waHQnLCAnMC41JywgJy1waCcsICc3LjUnLCAnLW50JywgJy1tYScsICcyMDAnLCAnLWltYWUnLCAnPGluZmlsZS5tYWU+JywgJy1vbWFlJywgJzxvdXRmaWxlLm1hZT4n

> <r_lp_tautomer_probability>
0.999999987636

> <r_epik_Ionization_Penalty>
  0.0678

> <r_epik_Ionization_Penalty_Charging>
  0.0007

> <r_epik_Ionization_Penalty_Neutral>
  0.0670

> <r_epik_State_Penalty>
  0.0585

> <r_epik_Charging_Adjusted_Penalty>
0.0592390797456294

> <i_epik_Tot_Q>
-1

> <i_epik_Tot_abs_Q>
1

> <s_epik_Chemistry_Notes>
This compound has an imine and may undergo hydrolysis.

> <s_lp_Force_Field>
OPLS3e

> <r_lp_Energy>
65.63409

> <b_lp_Chiralities_Consistent>
1

> <s_lp_Variant>
sdf/inactives_sanitized.sdf:204-1

$$$$
sdf/inactives_sanitized.sdf:205
                    3D
 Schrodinger Suite 2020-1.
 25 27  0  0  1  0            999 V2000
    4.3456    2.6184    0.3116 S   0  0  0  0  0  0
    4.2703   -0.0798    0.0791 N   0  0  0  0  0  0
    2.1672   -1.2498   -0.2379 N   0  0  0  0  0  0
    0.1096   -0.1674   -0.3852 N   0  0  0  0  0  0
    2.1499    1.1620    0.0077 C   0  0  0  0  0  0
    1.6993    2.5273    0.1125 C   0  0  0  0  0  0
    3.5745    1.0602    0.1219 C   0  0  0  0  0  0
    1.4876   -0.0767   -0.1941 C   0  0  0  0  0  0
    0.2929    3.0228    0.0920 C   0  0  0  0  0  0
    2.7811    3.3830    0.2473 C   0  0  0  0  0  0
    3.5117   -1.1889   -0.0950 C   0  0  0  0  0  0
   -0.0787    4.0166   -0.8191 C   0  0  0  0  0  0
   -0.6526    2.5094    0.9852 C   0  0  0  0  0  0
   -1.3895    4.4858   -0.8438 C   0  0  0  0  0  0
   -1.9634    2.9779    0.9606 C   0  0  0  0  0  0
   -2.3262    3.9633    0.0451 C   0  0  0  0  0  0
   -0.4510    0.6731   -0.3764 H   0  0  0  0  0  0
   -0.3102   -1.0736   -0.5366 H   0  0  0  0  0  0
    2.7316    4.4582    0.3397 H   0  0  0  0  0  0
    4.0408   -2.1297   -0.1321 H   0  0  0  0  0  0
    0.6445    4.4232   -1.5115 H   0  0  0  0  0  0
   -0.3722    1.7507    1.7018 H   0  0  0  0  0  0
   -1.6784    5.2513   -1.5488 H   0  0  0  0  0  0
   -2.6946    2.5809    1.6493 H   0  0  0  0  0  0
   -3.3428    4.3278    0.0264 H   0  0  0  0  0  0
  1  7  1  0  0  0
  1 10  1  0  0  0
  2  7  2  0  0  0
  2 11  1  0  0  0
  3  8  1  0  0  0
  3 11  2  0  0  0
  4  8  1  0  0  0
  4 17  1  0  0  0
  4 18  1  0  0  0
  5  6  1  0  0  0
  5  7  1  0  0  0
  5  8  2  0  0  0
  6  9  1  0  0  0
  6 10  2  0  0  0
  9 12  2  0  0  0
  9 13  1  0  0  0
 10 19  1  0  0  0
 11 20  1  0  0  0
 12 14  1  0  0  0
 12 21  1  0  0  0
 13 15  2  0  0  0
 13 22  1  0  0  0
 14 16  2  0  0  0
 14 23  1  0  0  0
 15 16  1  0  0  0
 15 24  1  0  0  0
 16 25  1  0  0  0
M  END
> <chembl_id>
CHEMBL1975212

> <chembl_pref_name>
None

> <s_m_source_file>
sdf/inactives_sanitized.sdf

> <i_m_source_file_index>
205

> <i_lp_mmshare_version>
49012

> <i_m_ct_stereo_status>
1

> <i_f3d_flags>
0

> <s_epik_input>
W05IMl1jMW5bY0hdbmMoYzEyKXNbY0hdYzItYzNbY0hdW2NIXVtjSF1bY0hdW2NIXTM=

> <s_epik_cmdline>
J2VwaWtfcHl0aG9uJywgJy1waHQnLCAnMC41JywgJy1waCcsICc3LjUnLCAnLW50JywgJy1tYScsICcyMDAnLCAnLWltYWUnLCAnPGluZmlsZS5tYWU+JywgJy1vbWFlJywgJzxvdXRmaWxlLm1hZT4n

> <r_lp_tautomer_probability>
1

> <r_epik_Ionization_Penalty>
  0.0001

> <r_epik_Ionization_Penalty_Charging>
  0.0000

> <r_epik_Ionization_Penalty_Neutral>
  0.0001

> <r_epik_State_Penalty>
 -0.0000

> <r_epik_Charging_Adjusted_Penalty>
0

> <i_epik_Tot_Q>
0

> <i_epik_Tot_abs_Q>
0

> <s_lp_Force_Field>
OPLS3e

> <r_lp_Energy>
31.316941

> <b_lp_Chiralities_Consistent>
1

> <s_lp_Variant>
sdf/inactives_sanitized.sdf:205-1

$$$$
sdf/inactives_sanitized.sdf:206
                    3D
 Schrodinger Suite 2020-1.
 44 48  0  0  1  0            999 V2000
   -2.9423    2.8405    0.4314 S   0  0  0  0  0  0
    7.6932   -0.7329   -1.0633 O   0  0  0  0  0  0
   -2.1704    5.7461    0.4018 O   0  0  0  0  0  0
   -2.2788   -1.1799    0.2035 N   0  0  0  0  0  0
    6.0880   -1.8851   -2.1802 N   0  0  0  0  0  0
    5.5188   -0.2643   -0.4438 N   0  0  0  0  0  0
   -4.3283   -0.0809    0.4618 N   0  0  0  0  0  0
    0.0464    5.4454    0.1946 N   0  0  0  0  0  0
   -0.8483    1.2467    0.1518 C   0  0  0  0  0  0
   -2.2685    1.2194    0.2997 C   0  0  0  0  0  0
   -0.1594    0.0124    0.0410 C   0  0  0  0  0  0
   -1.3468    3.5493    0.2737 C   0  0  0  0  0  0
   -0.3571    2.5867    0.1287 C   0  0  0  0  0  0
   -2.9440   -0.0110    0.3216 C   0  0  0  0  0  0
    1.3198   -0.0692   -0.1032 C   0  0  0  0  0  0
   -0.9343   -1.1532    0.0673 C   0  0  0  0  0  0
   -1.2068    4.9886    0.2956 C   0  0  0  0  0  0
    6.3632   -0.9850   -1.2568 C   0  0  0  0  0  0
    8.3117   -1.5542   -1.9537 C   0  0  0  0  0  0
    7.3166   -2.2650   -2.6422 C   0  0  0  0  0  0
    2.1636    0.6107    0.7802 C   0  0  0  0  0  0
    1.8885   -0.8402   -1.1213 C   0  0  0  0  0  0
    4.1132   -0.2388   -0.3763 C   0  0  0  0  0  0
    3.5461    0.5293    0.6423 C   0  0  0  0  0  0
    3.2711   -0.9240   -1.2619 C   0  0  0  0  0  0
    9.6797   -1.7167   -2.1949 C   0  0  0  0  0  0
    7.6891   -3.1921   -3.6275 C   0  0  0  0  0  0
   10.0280   -2.6440   -3.1809 C   0  0  0  0  0  0
    9.0550   -3.3657   -3.8819 C   0  0  0  0  0  0
    5.9370    0.3401    0.2478 H   0  0  0  0  0  0
   -4.8627    0.7709    0.5508 H   0  0  0  0  0  0
   -4.7780   -0.9849    0.4677 H   0  0  0  0  0  0
    0.2242    6.4392    0.2032 H   0  0  0  0  0  0
    0.8193    4.8026    0.1057 H   0  0  0  0  0  0
    0.6892    2.8233    0.0075 H   0  0  0  0  0  0
   -0.4639   -2.1228   -0.0139 H   0  0  0  0  0  0
    1.7497    1.2028    1.5834 H   0  0  0  0  0  0
    1.2573   -1.3747   -1.8165 H   0  0  0  0  0  0
    4.1741    1.0660    1.3393 H   0  0  0  0  0  0
    3.6552   -1.5234   -2.0705 H   0  0  0  0  0  0
   10.4255   -1.1573   -1.6499 H   0  0  0  0  0  0
    6.9471   -3.7557   -4.1738 H   0  0  0  0  0  0
   11.0716   -2.8080   -3.4073 H   0  0  0  0  0  0
    9.3661   -4.0736   -4.6364 H   0  0  0  0  0  0
  1 10  1  0  0  0
  1 12  1  0  0  0
  2 18  1  0  0  0
  2 19  1  0  0  0
  3 17  2  0  0  0
  4 14  2  0  0  0
  4 16  1  0  0  0
  5 18  2  0  0  0
  5 20  1  0  0  0
  6 18  1  0  0  0
  6 23  1  0  0  0
  6 30  1  0  0  0
  7 14  1  0  0  0
  7 31  1  0  0  0
  7 32  1  0  0  0
  8 17  1  0  0  0
  8 33  1  0  0  0
  8 34  1  0  0  0
  9 10  2  0  0  0
  9 11  1  0  0  0
  9 13  1  0  0  0
 10 14  1  0  0  0
 11 15  1  0  0  0
 11 16  2  0  0  0
 12 13  2  0  0  0
 12 17  1  0  0  0
 13 35  1  0  0  0
 15 21  2  0  0  0
 15 22  1  0  0  0
 16 36  1  0  0  0
 19 20  2  0  0  0
 19 26  1  0  0  0
 20 27  1  0  0  0
 21 24  1  0  0  0
 21 37  1  0  0  0
 22 25  2  0  0  0
 22 38  1  0  0  0
 23 24  2  0  0  0
 23 25  1  0  0  0
 24 39  1  0  0  0
 25 40  1  0  0  0
 26 28  2  0  0  0
 26 41  1  0  0  0
 27 29  2  0  0  0
 27 42  1  0  0  0
 28 29  1  0  0  0
 28 43  1  0  0  0
 29 44  1  0  0  0
M  END
> <chembl_id>
CHEMBL1993904

> <chembl_pref_name>
None

> <s_m_source_file>
sdf/inactives_sanitized.sdf

> <i_m_source_file_index>
206

> <i_lp_mmshare_version>
49012

> <i_m_ct_stereo_status>
1

> <i_f3d_flags>
0

> <s_epik_input>
Tz1DKFtOSDJdKWMoW2NIXTEpc2MoYzEyKWMoW05IMl0pbltjSF1jMi1jM1tjSF1bY0hdYyhbY0hdW2NIXTMpW05IXWMobzQpbmMoYzQ1KVtjSF1bY0hdW2NIXVtjSF01

> <s_epik_cmdline>
J2VwaWtfcHl0aG9uJywgJy1waHQnLCAnMC41JywgJy1waCcsICc3LjUnLCAnLW50JywgJy1tYScsICcyMDAnLCAnLWltYWUnLCAnPGluZmlsZS5tYWU+JywgJy1vbWFlJywgJzxvdXRmaWxlLm1hZT4n

> <r_lp_tautomer_probability>
1

> <r_epik_Ionization_Penalty>
  0.0001

> <r_epik_Ionization_Penalty_Charging>
  0.0000

> <r_epik_Ionization_Penalty_Neutral>
  0.0001

> <r_epik_State_Penalty>
 -0.0000

> <r_epik_Charging_Adjusted_Penalty>
0

> <i_epik_Tot_Q>
0

> <i_epik_Tot_abs_Q>
0

> <s_lp_Force_Field>
OPLS3e

> <r_lp_Energy>
22.928521

> <b_lp_Chiralities_Consistent>
1

> <s_lp_Variant>
sdf/inactives_sanitized.sdf:206-1

$$$$
sdf/inactives_sanitized.sdf:207
                    3D
 Schrodinger Suite 2020-1.
 42 44  0  0  1  0            999 V2000
    3.5402   -0.0385    5.1108 Cl  0  0  0  0  0  0
    3.7231    2.8455    4.4475 O   0  5  0  0  0  0
    2.9438    4.1403    2.1186 N   0  0  0  0  0  0
   -0.0473   -0.0748    0.1332 N   0  3  1  0  0  0
    2.2209    1.9817    1.2378 C   0  0  0  0  0  0
    2.7937    2.7865    2.2782 C   0  0  0  0  0  0
    2.0751    0.5772    1.4466 C   0  0  0  0  0  0
    3.2112    2.1606    3.4993 C   0  0  0  0  0  0
    3.0553    0.7763    3.6577 C   0  0  0  0  0  0
    2.4985    0.0073    2.6438 C   0  0  0  0  0  0
    1.4626   -0.3153    0.3699 C   0  0  0  0  0  0
    1.8201    2.6404    0.0387 C   0  0  0  0  0  0
    1.9853    4.0144   -0.0914 C   0  0  0  0  0  0
    2.5457    4.7204    0.9633 C   0  0  0  0  0  0
   -0.5446   -0.6976   -1.2007 C   0  0  0  0  0  0
   -1.8640   -0.0251   -1.6484 C   0  0  0  0  0  0
   -0.6637   -2.2412   -1.1204 C   0  0  0  0  0  0
   -0.8832   -0.4147    1.3888 C   0  0  0  0  0  0
   -2.3985   -0.6322   -2.9605 C   0  0  0  0  0  0
   -1.2136   -2.8423   -2.4297 C   0  0  0  0  0  0
   -2.5283   -2.1673   -2.8740 C   0  0  0  0  0  0
    2.3876   -1.0572    2.7952 H   0  0  0  0  0  0
    1.5499   -1.3744    0.6176 H   0  0  0  0  0  0
    1.9595   -0.1536   -0.5876 H   0  0  0  0  0  0
    1.3850    2.0836   -0.7770 H   0  0  0  0  0  0
    1.6831    4.5223   -0.9956 H   0  0  0  0  0  0
    2.6863    5.7889    0.8930 H   0  0  0  0  0  0
    0.1925   -0.4649   -1.9718 H   0  0  0  0  0  0
   -2.6299   -0.1627   -0.8858 H   0  0  0  0  0  0
   -1.7419    1.0570   -1.7166 H   0  0  0  0  0  0
    0.2841   -2.6971   -0.8338 H   0  0  0  0  0  0
   -1.3488   -2.5114   -0.3164 H   0  0  0  0  0  0
   -0.7238   -1.4658    1.6302 H   0  0  0  0  0  0
   -1.9295   -0.2014    1.1792 H   0  0  0  0  0  0
   -0.5265    0.2284    2.1937 H   0  0  0  0  0  0
   -3.3649   -0.1909   -3.2076 H   0  0  0  0  0  0
   -1.7277   -0.3705   -3.7803 H   0  0  0  0  0  0
   -0.4670   -2.7326   -3.2178 H   0  0  0  0  0  0
   -1.3698   -3.9150   -2.3087 H   0  0  0  0  0  0
   -3.3214   -2.4231   -2.1697 H   0  0  0  0  0  0
   -2.8414   -2.5672   -3.8392 H   0  0  0  0  0  0
   -0.1332    0.9237    0.0044 H   0  0  0  0  0  0
  1  9  1  0  0  0
  2  8  1  0  0  0
  3  6  2  0  0  0
  3 14  1  0  0  0
  4 11  1  0  0  0
  4 15  1  0  0  0
  4 18  1  0  0  0
  4 42  1  0  0  0
  5  6  1  0  0  0
  5  7  1  0  0  0
  5 12  2  0  0  0
  6  8  1  0  0  0
  7 10  2  0  0  0
  7 11  1  0  0  0
  8  9  2  0  0  0
  9 10  1  0  0  0
 10 22  1  0  0  0
 11 23  1  0  0  0
 11 24  1  0  0  0
 12 13  1  0  0  0
 12 25  1  0  0  0
 13 14  2  0  0  0
 13 26  1  0  0  0
 14 27  1  0  0  0
 15 16  1  0  0  0
 15 17  1  0  0  0
 15 28  1  0  0  0
 16 19  1  0  0  0
 16 29  1  0  0  0
 16 30  1  0  0  0
 17 20  1  0  0  0
 17 31  1  0  0  0
 17 32  1  0  0  0
 18 33  1  0  0  0
 18 34  1  0  0  0
 18 35  1  0  0  0
 19 21  1  0  0  0
 19 36  1  0  0  0
 19 37  1  0  0  0
 20 21  1  0  0  0
 20 38  1  0  0  0
 20 39  1  0  0  0
 21 40  1  0  0  0
 21 41  1  0  0  0
M  CHG  2   2  -1   4   1
M  END
> <chembl_id>
CHEMBL1982413

> <chembl_pref_name>
None

> <s_m_source_file>
sdf/inactives_sanitized.sdf

> <i_m_source_file_index>
207

> <i_lp_mmshare_version>
49012

> <i_m_ct_stereo_status>
1

> <i_f3d_flags>
0

> <s_epik_input>
W2NIXTFbY0hdW2NIXW5jKGMxMiljKFtPSF0pYyhDbClbY0hdYzJbQ0gyXU4oW0NIM10pW0NIXTNbQ0gyXVtDSDJdW0NIMl1bQ0gyXVtDSDJdMw==

> <s_epik_cmdline>
J2VwaWtfcHl0aG9uJywgJy1waHQnLCAnMC41JywgJy1waCcsICc3LjUnLCAnLW50JywgJy1tYScsICcyMDAnLCAnLWltYWUnLCAnPGluZmlsZS5tYWU+JywgJy1vbWFlJywgJzxvdXRmaWxlLm1hZT4n

> <r_lp_tautomer_probability>
1

> <r_epik_Ionization_Penalty>
  0.1191

> <r_epik_Ionization_Penalty_Charging>
  0.1191

> <r_epik_Ionization_Penalty_Neutral>
  0.0000

> <r_epik_State_Penalty>
 -0.0000

> <r_epik_Charging_Adjusted_Penalty>
0.119102674722461

> <i_epik_Tot_Q>
0

> <i_epik_Tot_abs_Q>
2

> <s_lp_Force_Field>
OPLS3e

> <r_lp_Energy>
44.486811

> <b_lp_Chiralities_Consistent>
1

> <s_lp_Variant>
sdf/inactives_sanitized.sdf:207-1

$$$$
sdf/inactives_sanitized.sdf:208
                    3D
 Schrodinger Suite 2020-1.
 47 51  0  0  1  0            999 V2000
   -0.2937    5.7400    0.2129 Cl  0  0  0  0  0  0
    6.1734   -0.0175    0.3294 S   0  0  0  0  0  0
   -5.3889    6.3921   -1.2449 O   0  0  0  0  0  0
    2.2655   -0.6406    1.3629 N   0  0  0  0  0  0
    2.5371    1.4323    0.1492 N   0  0  0  0  0  0
    4.1429   -2.0633    1.8349 N   0  0  0  0  0  0
    0.4096    0.6857    0.9336 N   0  0  0  0  0  0
   -3.1079    4.8322   -0.4488 N   0  0  0  0  0  0
    4.4351    0.0170    0.6119 C   0  0  0  0  0  0
    3.5976   -0.8994    1.2679 C   0  0  0  0  0  0
    3.8481    1.1889    0.0573 C   0  0  0  0  0  0
    1.7951    0.5037    0.8118 C   0  0  0  0  0  0
   -0.4369    1.7534    0.5884 C   0  0  0  0  0  0
   -2.2271    3.8209   -0.0977 C   0  0  0  0  0  0
    4.7974    2.0320   -0.5798 C   0  0  0  0  0  0
    3.2611   -3.1492    2.2452 C   0  0  0  0  0  0
   -0.8921    4.1141    0.2256 C   0  0  0  0  0  0
    6.0740    1.5137   -0.5105 C   0  0  0  0  0  0
   -0.0113    3.0874    0.5700 C   0  0  0  0  0  0
   -1.7689    1.4655    0.2860 C   0  0  0  0  0  0
   -2.6537    2.4866   -0.0578 C   0  0  0  0  0  0
    3.9023   -4.4721    2.5710 C   0  0  0  0  0  0
    3.0909   -4.3068    1.2965 C   0  0  0  0  0  0
   -4.2222    5.1223    0.4653 C   0  0  0  0  0  0
   -3.5991    4.8600   -1.8343 C   0  0  0  0  0  0
   -4.9358    6.4425    0.1022 C   0  0  0  0  0  0
   -4.3235    6.1831   -2.1631 C   0  0  0  0  0  0
    5.0295   -2.3390    1.4383 H   0  0  0  0  0  0
   -0.0621   -0.0950    1.3658 H   0  0  0  0  0  0
    4.5482    2.9667   -1.0598 H   0  0  0  0  0  0
    2.4086   -2.8421    2.8533 H   0  0  0  0  0  0
    6.9737    1.9558   -0.9134 H   0  0  0  0  0  0
    1.0030    3.3459    0.8332 H   0  0  0  0  0  0
   -2.1258    0.4455    0.3072 H   0  0  0  0  0  0
   -3.6773    2.2351   -0.2960 H   0  0  0  0  0  0
    4.9868   -4.5666    2.5020 H   0  0  0  0  0  0
    3.4876   -5.0560    3.3928 H   0  0  0  0  0  0
    2.1081   -4.7731    1.2269 H   0  0  0  0  0  0
    3.6071   -4.2826    0.3360 H   0  0  0  0  0  0
   -4.9304    4.2920    0.4684 H   0  0  0  0  0  0
   -3.8326    5.2043    1.4812 H   0  0  0  0  0  0
   -2.7503    4.7498   -2.5108 H   0  0  0  0  0  0
   -4.2561    4.0077   -2.0162 H   0  0  0  0  0  0
   -4.2773    7.3002    0.2534 H   0  0  0  0  0  0
   -5.7972    6.5919    0.7533 H   0  0  0  0  0  0
   -4.7362    6.1409   -3.1711 H   0  0  0  0  0  0
   -3.6304    7.0266   -2.1445 H   0  0  0  0  0  0
  1 17  1  0  0  0
  2  9  1  0  0  0
  2 18  1  0  0  0
  3 26  1  0  0  0
  3 27  1  0  0  0
  4 10  1  0  0  0
  4 12  2  0  0  0
  5 11  2  0  0  0
  5 12  1  0  0  0
  6 10  1  0  0  0
  6 16  1  0  0  0
  6 28  1  0  0  0
  7 12  1  0  0  0
  7 13  1  0  0  0
  7 29  1  0  0  0
  8 14  1  0  0  0
  8 24  1  0  0  0
  8 25  1  0  0  0
  9 10  2  0  0  0
  9 11  1  0  0  0
 11 15  1  0  0  0
 13 19  2  0  0  0
 13 20  1  0  0  0
 14 17  2  0  0  0
 14 21  1  0  0  0
 15 18  2  0  0  0
 15 30  1  0  0  0
 16 22  1  0  0  0
 16 23  1  0  0  0
 16 31  1  0  0  0
 17 19  1  0  0  0
 18 32  1  0  0  0
 19 33  1  0  0  0
 20 21  2  0  0  0
 20 34  1  0  0  0
 21 35  1  0  0  0
 22 23  1  0  0  0
 22 36  1  0  0  0
 22 37  1  0  0  0
 23 38  1  0  0  0
 23 39  1  0  0  0
 24 26  1  0  0  0
 24 40  1  0  0  0
 24 41  1  0  0  0
 25 27  1  0  0  0
 25 42  1  0  0  0
 25 43  1  0  0  0
 26 44  1  0  0  0
 26 45  1  0  0  0
 27 46  1  0  0  0
 27 47  1  0  0  0
M  END
> <chembl_id>
CHEMBL2002586

> <chembl_pref_name>
None

> <s_m_source_file>
sdf/inactives_sanitized.sdf

> <i_m_source_file_index>
208

> <i_lp_mmshare_version>
49012

> <i_m_ct_stereo_status>
1

> <i_f3d_flags>
0

> <s_epik_input>
W0NIMl0xW0NIMl1PW0NIMl1bQ0gyXU4xYyhbY0hdW2NIXTIpYyhDbClbY0hdYzJbTkhdYyhuYyhjMzQpW2NIXVtjSF1zMyluYzRbTkhdW0NIXTVbQ0gyXVtDSDJdNQ==

> <s_epik_cmdline>
J2VwaWtfcHl0aG9uJywgJy1waHQnLCAnMC41JywgJy1waCcsICc3LjUnLCAnLW50JywgJy1tYScsICcyMDAnLCAnLWltYWUnLCAnPGluZmlsZS5tYWU+JywgJy1vbWFlJywgJzxvdXRmaWxlLm1hZT4n

> <r_epik_Ionization_Penalty>
  0.0455

> <r_epik_Ionization_Penalty_Charging>
  0.0000

> <r_epik_Ionization_Penalty_Neutral>
  0.0455

> <r_epik_State_Penalty>
  0.0385

> <r_epik_Charging_Adjusted_Penalty>
0.0384754749310481

> <i_epik_Tot_Q>
0

> <i_epik_Tot_abs_Q>
0

> <s_lp_Force_Field>
OPLS3e

> <r_lp_Energy>
6.837104

> <b_lp_Chiralities_Consistent>
1

> <s_lp_Variant>
sdf/inactives_sanitized.sdf:208-1

$$$$
sdf/inactives_sanitized.sdf:209
                    3D
 Schrodinger Suite 2020-1.
 78 81  0  0  1  0            999 V2000
   -0.8138   -5.2185    1.1562 O   0  0  0  0  0  0
    1.4987    1.6732    0.2875 O   0  0  0  0  0  0
   -3.1003   -2.0943   -0.0333 N   0  0  0  0  0  0
   -4.1986   -2.4138   -0.7461 N   0  0  0  0  0  0
   -1.6167   -3.1288    1.6109 N   0  0  0  0  0  0
    0.4069   -3.6626    2.3172 N   0  0  0  0  0  0
    1.8890   -0.3436   -0.6900 N   0  0  0  0  0  0
    5.4230   -2.2722    1.0960 N   0  3  0  0  0  0
   -2.7054   -3.1592    0.7571 C   0  0  0  0  0  0
   -4.5332   -3.6510   -0.4335 C   0  0  0  0  0  0
   -2.4675   -0.8405   -0.2655 C   0  0  0  0  0  0
   -3.6267   -4.1626    0.5048 C   0  0  0  0  0  0
   -5.7558   -4.3172   -1.0819 C   0  0  0  0  0  0
   -1.0742   -0.7107   -0.1777 C   0  0  0  0  0  0
   -0.4364    0.5160   -0.4098 C   0  0  0  0  0  0
   -3.2298    0.2929   -0.5850 C   0  0  0  0  0  0
   -0.6884   -4.1021    1.6647 C   0  0  0  0  0  0
    1.0642    0.6605   -0.2681 C   0  0  0  0  0  0
    1.6820   -4.2619    2.4260 C   0  0  0  0  0  0
    2.5685   -3.8005    3.4557 C   0  0  0  0  0  0
   -1.2249    1.6365   -0.7017 C   0  0  0  0  0  0
   -2.6108    1.5233   -0.7974 C   0  0  0  0  0  0
    3.8817   -4.3655    3.5493 C   0  0  0  0  0  0
   -5.9274   -5.7696   -0.5742 C   0  0  0  0  0  0
   -5.5812   -4.3535   -2.6189 C   0  0  0  0  0  0
   -7.0355   -3.5205   -0.7336 C   0  0  0  0  0  0
    2.1443   -5.2205    1.5106 C   0  0  0  0  0  0
    2.2053   -2.7983    4.4045 C   0  0  0  0  0  0
    4.2826   -5.3523    2.6194 C   0  0  0  0  0  0
    1.5634   -1.2774   -1.7948 C   0  0  0  0  0  0
    4.7638   -3.9250    4.5678 C   0  0  0  0  0  0
    3.4191   -5.7604    1.6124 C   0  0  0  0  0  0
    3.2694   -0.4195   -0.1727 C   0  0  0  0  0  0
    3.0982   -2.3857    5.3887 C   0  0  0  0  0  0
    4.3663   -2.9452    5.4709 C   0  0  0  0  0  0
    3.3491   -0.8719    1.3003 C   0  0  0  0  0  0
    1.7382   -2.7653   -1.4175 C   0  0  0  0  0  0
    2.2951   -0.9153   -3.1025 C   0  0  0  0  0  0
    4.7858   -1.0713    1.8015 C   0  0  0  0  0  0
   -1.3930   -2.2371    2.0279 H   0  0  0  0  0  0
    0.3326   -2.7584    2.7595 H   0  0  0  0  0  0
    6.3647   -2.4132    1.4329 H   0  0  0  0  0  0
    5.4544   -2.1150    0.0987 H   0  0  0  0  0  0
   -3.6396   -5.1465    0.9501 H   0  0  0  0  0  0
   -0.4684   -1.5681    0.0613 H   0  0  0  0  0  0
   -4.3064    0.2322   -0.6583 H   0  0  0  0  0  0
   -0.7688    2.6030   -0.8644 H   0  0  0  0  0  0
   -3.2069    2.3928   -1.0322 H   0  0  0  0  0  0
   -6.7906   -6.2573   -1.0295 H   0  0  0  0  0  0
   -6.0687   -5.8031    0.5072 H   0  0  0  0  0  0
   -5.0523   -6.3801   -0.8025 H   0  0  0  0  0  0
   -4.6777   -4.8950   -2.9035 H   0  0  0  0  0  0
   -5.4970   -3.3508   -3.0407 H   0  0  0  0  0  0
   -6.4240   -4.8424   -3.1100 H   0  0  0  0  0  0
   -7.9260   -3.9767   -1.1683 H   0  0  0  0  0  0
   -6.9852   -2.4942   -1.1002 H   0  0  0  0  0  0
   -7.1885   -3.4659    0.3453 H   0  0  0  0  0  0
    1.5310   -5.5582    0.6900 H   0  0  0  0  0  0
    1.2243   -2.3476    4.3692 H   0  0  0  0  0  0
    5.2720   -5.7815    2.6884 H   0  0  0  0  0  0
    0.5104   -1.1726   -2.0505 H   0  0  0  0  0  0
    5.7528   -4.3544    4.6407 H   0  0  0  0  0  0
    3.7423   -6.5033    0.8979 H   0  0  0  0  0  0
    3.8553   -1.1097   -0.7788 H   0  0  0  0  0  0
    3.7724    0.5408   -0.2987 H   0  0  0  0  0  0
    2.8009   -1.6271    6.0980 H   0  0  0  0  0  0
    5.0475   -2.6177    6.2426 H   0  0  0  0  0  0
    2.8632   -0.1348    1.9409 H   0  0  0  0  0  0
    2.7936   -1.8013    1.4243 H   0  0  0  0  0  0
    1.4835   -3.4064   -2.2619 H   0  0  0  0  0  0
    1.0834   -3.0566   -0.5976 H   0  0  0  0  0  0
    2.7654   -3.0112   -1.1490 H   0  0  0  0  0  0
    2.0493   -1.6280   -3.8905 H   0  0  0  0  0  0
    3.3793   -0.9389   -2.9923 H   0  0  0  0  0  0
    1.9961    0.0688   -3.4650 H   0  0  0  0  0  0
    4.8283   -1.3250    2.8610 H   0  0  0  0  0  0
    5.4393   -0.2232    1.5945 H   0  0  0  0  0  0
    4.8846   -3.1079    1.2777 H   0  0  0  0  0  0
  1 17  2  0  0  0
  2 18  2  0  0  0
  3  4  1  0  0  0
  3  9  1  0  0  0
  3 11  1  0  0  0
  4 10  2  0  0  0
  5  9  1  0  0  0
  5 17  1  0  0  0
  5 40  1  0  0  0
  6 17  1  0  0  0
  6 19  1  0  0  0
  6 41  1  0  0  0
  7 18  1  0  0  0
  7 30  1  0  0  0
  7 33  1  0  0  0
  8 39  1  0  0  0
  8 42  1  0  0  0
  8 43  1  0  0  0
  8 78  1  0  0  0
  9 12  2  0  0  0
 10 12  1  0  0  0
 10 13  1  0  0  0
 11 14  2  0  0  0
 11 16  1  0  0  0
 12 44  1  0  0  0
 13 24  1  0  0  0
 13 25  1  0  0  0
 13 26  1  0  0  0
 14 15  1  0  0  0
 14 45  1  0  0  0
 15 18  1  0  0  0
 15 21  2  0  0  0
 16 22  2  0  0  0
 16 46  1  0  0  0
 19 20  1  0  0  0
 19 27  2  0  0  0
 20 23  2  0  0  0
 20 28  1  0  0  0
 21 22  1  0  0  0
 21 47  1  0  0  0
 22 48  1  0  0  0
 23 29  1  0  0  0
 23 31  1  0  0  0
 24 49  1  0  0  0
 24 50  1  0  0  0
 24 51  1  0  0  0
 25 52  1  0  0  0
 25 53  1  0  0  0
 25 54  1  0  0  0
 26 55  1  0  0  0
 26 56  1  0  0  0
 26 57  1  0  0  0
 27 32  1  0  0  0
 27 58  1  0  0  0
 28 34  2  0  0  0
 28 59  1  0  0  0
 29 32  2  0  0  0
 29 60  1  0  0  0
 30 37  1  0  0  0
 30 38  1  0  0  0
 30 61  1  0  0  0
 31 35  2  0  0  0
 31 62  1  0  0  0
 32 63  1  0  0  0
 33 36  1  0  0  0
 33 64  1  0  0  0
 33 65  1  0  0  0
 34 35  1  0  0  0
 34 66  1  0  0  0
 35 67  1  0  0  0
 36 39  1  0  0  0
 36 68  1  0  0  0
 36 69  1  0  0  0
 37 70  1  0  0  0
 37 71  1  0  0  0
 37 72  1  0  0  0
 38 73  1  0  0  0
 38 74  1  0  0  0
 38 75  1  0  0  0
 39 76  1  0  0  0
 39 77  1  0  0  0
M  CHG  1   8   1
M  END
> <chembl_id>
CHEMBL1994318

> <chembl_pref_name>
None

> <s_m_source_file>
sdf/inactives_sanitized.sdf

> <i_m_source_file_index>
209

> <i_lp_mmshare_version>
49012

> <i_m_ct_stereo_status>
1

> <i_f3d_flags>
0

> <s_epik_input>
W2NIXTFbY0hdW2NIXVtjSF1jKGMxMilbY0hdW2NIXVtjSF1jMltOSF1DKD1PKVtOSF1jM1tjSF1jKEMoW0NIM10pKFtDSDNdKVtDSDNdKW5uMy1jNFtjSF1jKFtjSF1bY0hdW2NIXTQpQyg9TylOKFtDSF0oW0NIM10pW0NIM10pW0NIMl1bQ0gyXVtDSDJdW05IMl0=

> <s_epik_cmdline>
J2VwaWtfcHl0aG9uJywgJy1waHQnLCAnMC41JywgJy1waCcsICc3LjUnLCAnLW50JywgJy1tYScsICcyMDAnLCAnLWltYWUnLCAnPGluZmlsZS5tYWU+JywgJy1vbWFlJywgJzxvdXRmaWxlLm1hZT4n

> <r_lp_tautomer_probability>
1

> <r_epik_Ionization_Penalty>
  0.0028

> <r_epik_Ionization_Penalty_Charging>
  0.0028

> <r_epik_Ionization_Penalty_Neutral>
  0.0000

> <r_epik_State_Penalty>
 -0.0000

> <r_epik_Charging_Adjusted_Penalty>
0.00279193898874099

> <i_epik_Tot_Q>
1

> <i_epik_Tot_abs_Q>
1

> <s_lp_Force_Field>
OPLS3e

> <r_lp_Energy>
74.393614

> <b_lp_Chiralities_Consistent>
1

> <s_lp_Variant>
sdf/inactives_sanitized.sdf:209-1

$$$$
sdf/inactives_sanitized.sdf:210
                    3D
 Schrodinger Suite 2020-1.
 39 42  0  0  1  0            999 V2000
   -5.2210    2.8091    0.8783 C   0  0  0  0  0  0
   -5.1645    3.9174    0.0969 N   0  0  0  0  0  0
   -4.0975    4.0522   -0.7310 C   0  0  0  0  0  0
   -3.0729    3.1069   -0.8092 C   0  0  0  0  0  0
   -3.1456    1.9638   -0.0027 C   0  0  0  0  0  0
   -4.2383    1.8177    0.8608 C   0  0  0  0  0  0
   -2.0722    0.9314   -0.0479 C   0  0  0  0  0  0
   -0.7428    1.2616   -0.0545 N   0  0  0  0  0  0
   -0.0194    0.1007   -0.0113 C   0  0  0  0  0  0
   -0.8227   -0.9375    0.0120 N   0  0  0  0  0  0
   -2.0671   -0.4741   -0.0642 C   0  0  0  0  0  0
    1.4782    0.0346    0.0189 C   0  0  0  0  0  0
    2.1320   -1.2045    0.0373 C   0  0  0  0  0  0
    3.5226   -1.2677    0.0628 C   0  0  0  0  0  0
    4.2679   -0.0911    0.0705 C   0  0  0  0  0  0
    3.6314    1.1479    0.0535 C   0  0  0  0  0  0
    2.2406    1.2098    0.0277 C   0  0  0  0  0  0
   -3.2292   -1.4261   -0.0690 C   0  0  0  0  0  0
   -3.1114   -2.7005    0.5039 C   0  0  0  0  0  0
   -4.1908   -3.5798    0.4985 C   0  0  0  0  0  0
   -5.3936   -3.1932   -0.0862 C   0  0  0  0  0  0
   -5.5229   -1.9354   -0.6687 C   0  0  0  0  0  0
   -4.4430   -1.0568   -0.6616 C   0  0  0  0  0  0
   -6.4423   -4.0467   -0.0915 F   0  0  0  0  0  0
    5.6356   -0.1537    0.0953 O   0  0  0  0  0  0
   -6.0764    2.7236    1.5319 H   0  0  0  0  0  0
   -4.0722    4.9426   -1.3419 H   0  0  0  0  0  0
   -2.2448    3.2591   -1.4861 H   0  0  0  0  0  0
   -4.3253    0.9555    1.5062 H   0  0  0  0  0  0
   -0.3639    2.1977   -0.0561 H   0  0  0  0  0  0
    1.5673   -2.1256    0.0312 H   0  0  0  0  0  0
    4.0173   -2.2281    0.0763 H   0  0  0  0  0  0
    4.2091    2.0608    0.0600 H   0  0  0  0  0  0
    1.7630    2.1784    0.0146 H   0  0  0  0  0  0
   -2.1858   -3.0136    0.9648 H   0  0  0  0  0  0
   -4.0950   -4.5576    0.9472 H   0  0  0  0  0  0
   -6.4554   -1.6429   -1.1282 H   0  0  0  0  0  0
   -4.5557   -0.0931   -1.1347 H   0  0  0  0  0  0
    6.0496    0.7121    0.1007 H   0  0  0  0  0  0
  1  6  2  0  0  0
  1  2  1  0  0  0
  1 26  1  0  0  0
  2  3  2  0  0  0
  3  4  1  0  0  0
  3 27  1  0  0  0
  4  5  2  0  0  0
  4 28  1  0  0  0
  5  7  1  0  0  0
  5  6  1  0  0  0
  6 29  1  0  0  0
  7  8  1  0  0  0
  7 11  2  0  0  0
  8  9  1  0  0  0
  8 30  1  0  0  0
  9 12  1  0  0  0
  9 10  2  0  0  0
 10 11  1  0  0  0
 11 18  1  0  0  0
 12 13  2  0  0  0
 12 17  1  0  0  0
 13 14  1  0  0  0
 13 31  1  0  0  0
 14 15  2  0  0  0
 14 32  1  0  0  0
 15 16  1  0  0  0
 15 25  1  0  0  0
 16 17  2  0  0  0
 16 33  1  0  0  0
 17 34  1  0  0  0
 18 19  2  0  0  0
 18 23  1  0  0  0
 19 20  1  0  0  0
 19 35  1  0  0  0
 20 21  2  0  0  0
 20 36  1  0  0  0
 21 22  1  0  0  0
 21 24  1  0  0  0
 22 23  2  0  0  0
 22 37  1  0  0  0
 23 38  1  0  0  0
 25 39  1  0  0  0
M  END
> <chembl_id>
CHEMBL278041

> <chembl_pref_name>
SB-202190

> <s_m_source_file>
sdf/inactives_sanitized.sdf

> <i_m_source_file_index>
210

> <i_lp_mmshare_version>
49012

> <i_m_ct_stereo_status>
1

> <i_f3d_flags>
0

> <s_epik_input>
W2NIXTFbY0hdbltjSF1bY0hdYzEtYzJbbkhdYygtYzNbY0hdW2NIXWMoW09IXSlbY0hdW2NIXTMpbmMyLWM0W2NIXVtjSF1jKEYpW2NIXVtjSF00

> <s_epik_cmdline>
J2VwaWtfcHl0aG9uJywgJy1waHQnLCAnMC41JywgJy1waCcsICc3LjUnLCAnLW50JywgJy1tYScsICcyMDAnLCAnLWltYWUnLCAnPGluZmlsZS5tYWU+JywgJy1vbWFlJywgJzxvdXRmaWxlLm1hZT4n

> <r_lp_tautomer_probability>
1

> <r_epik_Ionization_Penalty>
  0.0065

> <r_epik_Ionization_Penalty_Charging>
  0.0021

> <r_epik_Ionization_Penalty_Neutral>
  0.0044

> <r_epik_State_Penalty>
 -0.0000

> <r_epik_Charging_Adjusted_Penalty>
0.00211356093554082

> <i_epik_Tot_Q>
0

> <i_epik_Tot_abs_Q>
0

> <s_lp_Force_Field>
OPLS3e

> <r_lp_Energy>
34.472541

> <b_lp_Chiralities_Consistent>
1

> <s_lp_Variant>
sdf/inactives_sanitized.sdf:210-1

$$$$
sdf/inactives_sanitized.sdf:211
                    3D
 Schrodinger Suite 2020-1.
 37 39  0  0  1  0            999 V2000
   -2.0781   -0.9963   -0.0032 C   0  0  0  0  0  0
   -2.7396    0.1703    0.0076 N   0  0  0  0  0  0
   -1.9237    1.2559   -0.0294 C   0  0  0  0  0  0
   -0.5682    1.2727   -0.0887 N   0  0  0  0  0  0
    0.0642    0.0722   -0.1029 C   0  0  0  0  0  0
   -0.6667   -1.1335   -0.0422 C   0  0  0  0  0  0
   -0.4388   -2.5507   -0.0156 C   0  0  0  0  0  0
   -1.5871   -3.1871   -0.0129 N   0  0  0  0  0  0
   -2.5980   -2.2851    0.0076 N   0  0  0  0  0  0
    0.8491   -3.3072    0.0195 C   0  0  0  0  0  0
    1.0129   -4.4517   -0.7698 C   0  0  0  0  0  0
    2.2174   -5.1494   -0.7515 C   0  0  0  0  0  0
    3.2623   -4.7034    0.0551 C   0  0  0  0  0  0
    3.1094   -3.5656    0.8447 C   0  0  0  0  0  0
    1.9041   -2.8690    0.8260 C   0  0  0  0  0  0
   -4.0202   -2.7286    0.0299 C   0  0  0  0  0  0
   -4.6923   -2.1735    1.3081 C   0  0  0  0  0  0
   -4.1498   -4.2787    0.0431 C   0  0  0  0  0  0
   -4.7259   -2.1909   -1.2374 C   0  0  0  0  0  0
    1.4524    0.0955   -0.2077 N   0  0  0  0  0  0
    4.7562   -5.5676    0.0781 Cl  0  0  0  0  0  0
   -2.4123    2.2192   -0.0180 H   0  0  0  0  0  0
    0.2090   -4.8014   -1.4016 H   0  0  0  0  0  0
    2.3376   -6.0321   -1.3624 H   0  0  0  0  0  0
    3.9196   -3.2246    1.4725 H   0  0  0  0  0  0
    1.7892   -1.9987    1.4552 H   0  0  0  0  0  0
   -5.7305   -2.4995    1.3842 H   0  0  0  0  0  0
   -4.7023   -1.0839    1.3322 H   0  0  0  0  0  0
   -4.1780   -2.5133    2.2082 H   0  0  0  0  0  0
   -3.6652   -4.7181    0.9164 H   0  0  0  0  0  0
   -3.7016   -4.7304   -0.8433 H   0  0  0  0  0  0
   -5.1947   -4.5912    0.0670 H   0  0  0  0  0  0
   -5.7660   -2.5166   -1.2814 H   0  0  0  0  0  0
   -4.2365   -2.5439   -2.1463 H   0  0  0  0  0  0
   -4.7350   -1.1017   -1.2766 H   0  0  0  0  0  0
    1.9638   -0.7745   -0.2435 H   0  0  0  0  0  0
    1.9275    0.9849   -0.2633 H   0  0  0  0  0  0
  1  2  2  0  0  0
  1  6  1  0  0  0
  1  9  1  0  0  0
  2  3  1  0  0  0
  3  4  2  0  0  0
  3 22  1  0  0  0
  4  5  1  0  0  0
  5  6  2  0  0  0
  5 20  1  0  0  0
  6  7  1  0  0  0
  7  8  2  0  0  0
  7 10  1  0  0  0
  8  9  1  0  0  0
  9 16  1  0  0  0
 10 11  2  0  0  0
 10 15  1  0  0  0
 11 12  1  0  0  0
 11 23  1  0  0  0
 12 13  2  0  0  0
 12 24  1  0  0  0
 13 14  1  0  0  0
 13 21  1  0  0  0
 14 15  2  0  0  0
 14 25  1  0  0  0
 15 26  1  0  0  0
 16 17  1  0  0  0
 16 18  1  0  0  0
 16 19  1  0  0  0
 17 27  1  0  0  0
 17 28  1  0  0  0
 17 29  1  0  0  0
 18 30  1  0  0  0
 18 31  1  0  0  0
 18 32  1  0  0  0
 19 33  1  0  0  0
 19 34  1  0  0  0
 19 35  1  0  0  0
 20 36  1  0  0  0
 20 37  1  0  0  0
M  END
> <chembl_id>
CHEMBL406845

> <chembl_pref_name>
None

> <s_m_source_file>
sdf/inactives_sanitized.sdf

> <i_m_source_file_index>
211

> <i_lp_mmshare_version>
49012

> <i_m_ct_stereo_status>
1

> <i_f3d_flags>
0

> <s_epik_input>
bjFbY0hdbmMoW05IMl0pYyhjMTIpYyhubjJDKFtDSDNdKShbQ0gzXSlbQ0gzXSktYzNbY0hdW2NIXWMoQ2wpW2NIXVtjSF0z

> <s_epik_cmdline>
J2VwaWtfcHl0aG9uJywgJy1waHQnLCAnMC41JywgJy1waCcsICc3LjUnLCAnLW50JywgJy1tYScsICcyMDAnLCAnLWltYWUnLCAnPGluZmlsZS5tYWU+JywgJy1vbWFlJywgJzxvdXRmaWxlLm1hZT4n

> <r_lp_tautomer_probability>
1

> <r_epik_Ionization_Penalty>
  0.0002

> <r_epik_Ionization_Penalty_Charging>
  0.0000

> <r_epik_Ionization_Penalty_Neutral>
  0.0002

> <r_epik_State_Penalty>
 -0.0000

> <r_epik_Charging_Adjusted_Penalty>
0

> <i_epik_Tot_Q>
0

> <i_epik_Tot_abs_Q>
0

> <s_lp_Force_Field>
OPLS3e

> <r_lp_Energy>
21.300189

> <b_lp_Chiralities_Consistent>
1

> <s_lp_Variant>
sdf/inactives_sanitized.sdf:211-1

$$$$
sdf/inactives_sanitized.sdf:212
                    3D
 Schrodinger Suite 2020-1.
 25 27  0  0  1  0            999 V2000
   -0.7166   -1.1985    0.0000 C   0  0  0  0  0  0
   -2.1122   -1.1650    0.0000 C   0  0  0  0  0  0
   -2.8576   -0.0287    0.0000 N   0  0  0  0  0  0
    0.0092   -0.0017    0.0000 C   0  0  0  0  0  0
   -0.7260    1.2014    0.0000 C   0  0  0  0  0  0
   -2.1486    1.1042    0.0000 C   0  0  0  0  0  0
   -2.6527    2.3870    0.0000 N   0  0  0  0  0  0
   -1.6138    3.2863    0.0000 C   0  0  0  0  0  0
   -0.4123    2.6024   -0.0000 C   0  0  0  0  0  0
    1.4883   -0.0017    0.0000 C   0  0  0  0  0  0
    2.1906   -0.0025   -1.2087 C   0  0  0  0  0  0
    3.5832   -0.0011   -1.2099 C   0  0  0  0  0  0
    4.2735   -0.0000    0.0000 C   0  0  0  0  0  0
    3.5832   -0.0011    1.2099 C   0  0  0  0  0  0
    2.1906   -0.0025    1.2087 C   0  0  0  0  0  0
   -0.2021   -2.1487    0.0000 H   0  0  0  0  0  0
   -2.6709   -2.0896    0.0000 H   0  0  0  0  0  0
   -3.6219    2.6707    0.0000 H   0  0  0  0  0  0
   -1.8223    4.3464    0.0000 H   0  0  0  0  0  0
    0.5664    3.0594   -0.0000 H   0  0  0  0  0  0
    1.6571   -0.0021   -2.1485 H   0  0  0  0  0  0
    4.1250   -0.0000   -2.1443 H   0  0  0  0  0  0
    5.3536    0.0011    0.0000 H   0  0  0  0  0  0
    4.1250   -0.0000    2.1443 H   0  0  0  0  0  0
    1.6571   -0.0021    2.1485 H   0  0  0  0  0  0
  1  4  2  0  0  0
  1  2  1  0  0  0
  1 16  1  0  0  0
  2  3  2  0  0  0
  2 17  1  0  0  0
  3  6  1  0  0  0
  4  5  1  0  0  0
  4 10  1  0  0  0
  5  9  1  0  0  0
  5  6  2  0  0  0
  6  7  1  0  0  0
  7  8  1  0  0  0
  7 18  1  0  0  0
  8  9  2  0  0  0
  8 19  1  0  0  0
  9 20  1  0  0  0
 10 11  2  0  0  0
 10 15  1  0  0  0
 11 12  1  0  0  0
 11 21  1  0  0  0
 12 13  2  0  0  0
 12 22  1  0  0  0
 13 14  1  0  0  0
 13 23  1  0  0  0
 14 15  2  0  0  0
 14 24  1  0  0  0
 15 25  1  0  0  0
M  END
> <chembl_id>
CHEMBL482538

> <chembl_pref_name>
None

> <s_m_source_file>
sdf/inactives_sanitized.sdf

> <i_m_source_file_index>
212

> <i_lp_mmshare_version>
49012

> <i_m_ct_stereo_status>
1

> <i_f3d_flags>
0

> <s_epik_input>
W2NIXTFbY0hdW25IXWMoYzEyKW5bY0hdW2NIXWMyLWMzW2NIXVtjSF1bY0hdW2NIXVtjSF0z

> <s_epik_cmdline>
J2VwaWtfcHl0aG9uJywgJy1waHQnLCAnMC41JywgJy1waCcsICc3LjUnLCAnLW50JywgJy1tYScsICcyMDAnLCAnLWltYWUnLCAnPGluZmlsZS5tYWU+JywgJy1vbWFlJywgJzxvdXRmaWxlLm1hZT4n

> <r_lp_tautomer_probability>
1

> <r_epik_Ionization_Penalty>
  0.0008

> <r_epik_Ionization_Penalty_Charging>
  0.0000

> <r_epik_Ionization_Penalty_Neutral>
  0.0008

> <r_epik_State_Penalty>
 -0.0000

> <r_epik_Charging_Adjusted_Penalty>
0

> <i_epik_Tot_Q>
0

> <i_epik_Tot_abs_Q>
0

> <s_lp_Force_Field>
OPLS3e

> <r_lp_Energy>
30.780929

> <b_lp_Chiralities_Consistent>
1

> <s_lp_Variant>
sdf/inactives_sanitized.sdf:212-1

$$$$
sdf/inactives_sanitized.sdf:213
                    3D
 Schrodinger Suite 2020-1.
 76 80  0  0  1  0            999 V2000
   -5.9197   -3.8510   -2.4551 C   0  0  0  0  0  0
   -5.5064   -2.4800   -1.9513 C   0  0  0  0  0  0
   -6.3766   -1.7326   -1.1562 C   0  0  0  0  0  0
   -5.9955   -0.4728   -0.7029 C   0  0  0  0  0  0
   -4.7393    0.0484   -1.0431 C   0  0  0  0  0  0
   -3.8741   -0.7039   -1.8477 C   0  0  0  0  0  0
   -4.2582   -1.9631   -2.3003 C   0  0  0  0  0  0
   -4.3499    1.3286   -0.5671 N   0  0  0  0  0  0
   -5.2608    2.3199   -0.5365 N   0  0  0  0  0  0
   -4.6526    3.4040   -0.0978 C   0  0  0  0  0  0
   -3.3051    3.1158    0.1595 C   0  0  0  0  0  0
   -3.1115    1.7735   -0.1421 C   0  0  0  0  0  0
   -2.0023    0.9434   -0.0546 N   0  0  0  0  0  0
   -0.7461    1.3306    0.2384 C   0  0  0  0  0  0
   -0.4003    2.4855    0.4991 O   0  0  0  0  0  0
    0.0852    0.2697    0.2073 N   0  0  0  0  0  0
    1.4797    0.2661    0.4160 C   0  0  0  0  0  0
    2.2892    1.2959   -0.0740 C   0  0  0  0  0  0
    3.6643    1.2768    0.1029 C   0  0  0  0  0  0
    4.3002    0.2212    0.7672 C   0  0  0  0  0  0
    5.6691    0.1607    0.9650 O   0  0  0  0  0  0
    6.5152    1.1686    0.4152 C   0  0  0  0  0  0
    7.9906    0.8284    0.7099 C   0  0  0  0  0  0
    8.3946   -0.5118    0.2668 N   0  0  0  0  0  0
    8.2835   -0.7074   -1.1867 C   0  0  0  0  0  0
    8.8006   -2.0979   -1.6141 C   0  0  0  0  0  0
   10.1261   -2.2983   -1.1366 O   0  0  0  0  0  0
   10.2050   -2.2242    0.2824 C   0  0  0  0  0  0
    9.7379   -0.8346    0.7652 C   0  0  0  0  0  0
    3.5092   -0.8551    1.2668 C   0  0  0  0  0  0
    4.1044   -1.9578    1.9416 C   0  0  0  0  0  0
    3.3285   -3.0065    2.4218 C   0  0  0  0  0  0
    1.9518   -2.9970    2.2515 C   0  0  0  0  0  0
    1.3299   -1.9390    1.5982 C   0  0  0  0  0  0
    2.0860   -0.8416    1.0883 C   0  0  0  0  0  0
   -5.4116    4.7310    0.0635 C   0  0  0  0  0  0
   -4.7091    5.6330    1.1070 C   0  0  0  0  0  0
   -6.8660    4.4932    0.5457 C   0  0  0  0  0  0
   -5.4418    5.4620   -1.2965 C   0  0  0  0  0  0
   -5.6900   -3.9477   -3.5170 H   0  0  0  0  0  0
   -6.9907   -4.0227   -2.3396 H   0  0  0  0  0  0
   -5.3738   -4.6318   -1.9248 H   0  0  0  0  0  0
   -7.3462   -2.1247   -0.8856 H   0  0  0  0  0  0
   -6.6780    0.0894   -0.0816 H   0  0  0  0  0  0
   -2.9104   -0.3178   -2.1450 H   0  0  0  0  0  0
   -3.5858   -2.5340   -2.9241 H   0  0  0  0  0  0
   -2.5656    3.8095    0.5302 H   0  0  0  0  0  0
   -2.1595   -0.0315   -0.2642 H   0  0  0  0  0  0
   -0.3360   -0.6423    0.1091 H   0  0  0  0  0  0
    1.8585    2.1267   -0.6133 H   0  0  0  0  0  0
    4.2289    2.1062   -0.2942 H   0  0  0  0  0  0
    6.3569    1.2711   -0.6595 H   0  0  0  0  0  0
    6.2781    2.1335    0.8662 H   0  0  0  0  0  0
    8.6386    1.5782    0.2528 H   0  0  0  0  0  0
    8.1420    0.9039    1.7880 H   0  0  0  0  0  0
    7.2460   -0.5939   -1.5009 H   0  0  0  0  0  0
    8.8447    0.0725   -1.7042 H   0  0  0  0  0  0
    8.1404   -2.8882   -1.2510 H   0  0  0  0  0  0
    8.8060   -2.1744   -2.7015 H   0  0  0  0  0  0
    9.6124   -3.0183    0.7410 H   0  0  0  0  0  0
   11.2386   -2.3947    0.5836 H   0  0  0  0  0  0
    9.7383   -0.8004    1.8555 H   0  0  0  0  0  0
   10.4460   -0.0706    0.4388 H   0  0  0  0  0  0
    5.1751   -1.9868    2.0844 H   0  0  0  0  0  0
    3.8002   -3.8340    2.9310 H   0  0  0  0  0  0
    1.3595   -3.8171    2.6300 H   0  0  0  0  0  0
    0.2561   -1.9579    1.4831 H   0  0  0  0  0  0
   -5.2477    6.5696    1.2589 H   0  0  0  0  0  0
   -3.6946    5.8927    0.8016 H   0  0  0  0  0  0
   -4.6356    5.1379    2.0766 H   0  0  0  0  0  0
   -6.8877    3.9456    1.4891 H   0  0  0  0  0  0
   -7.4434    3.9116   -0.1746 H   0  0  0  0  0  0
   -7.3992    5.4324    0.7005 H   0  0  0  0  0  0
   -5.9600    6.4196   -1.2296 H   0  0  0  0  0  0
   -5.9481    4.8674   -2.0585 H   0  0  0  0  0  0
   -4.4341    5.6596   -1.6652 H   0  0  0  0  0  0
  1  2  1  0  0  0
  1 40  1  0  0  0
  1 41  1  0  0  0
  1 42  1  0  0  0
  2  3  2  0  0  0
  2  7  1  0  0  0
  3  4  1  0  0  0
  3 43  1  0  0  0
  4  5  2  0  0  0
  4 44  1  0  0  0
  5  6  1  0  0  0
  5  8  1  0  0  0
  6  7  2  0  0  0
  6 45  1  0  0  0
  7 46  1  0  0  0
  8  9  1  0  0  0
  8 12  1  0  0  0
  9 10  2  0  0  0
 10 11  1  0  0  0
 10 36  1  0  0  0
 11 12  2  0  0  0
 11 47  1  0  0  0
 12 13  1  0  0  0
 13 14  1  0  0  0
 13 48  1  0  0  0
 14 15  2  0  0  0
 14 16  1  0  0  0
 16 17  1  0  0  0
 16 49  1  0  0  0
 17 18  2  0  0  0
 17 35  1  0  0  0
 18 19  1  0  0  0
 18 50  1  0  0  0
 19 20  2  0  0  0
 19 51  1  0  0  0
 20 21  1  0  0  0
 20 30  1  0  0  0
 21 22  1  0  0  0
 22 23  1  0  0  0
 22 52  1  0  0  0
 22 53  1  0  0  0
 23 24  1  0  0  0
 23 54  1  0  0  0
 23 55  1  0  0  0
 24 25  1  0  0  0
 24 29  1  0  0  0
 25 26  1  0  0  0
 25 56  1  0  0  0
 25 57  1  0  0  0
 26 27  1  0  0  0
 26 58  1  0  0  0
 26 59  1  0  0  0
 27 28  1  0  0  0
 28 29  1  0  0  0
 28 60  1  0  0  0
 28 61  1  0  0  0
 29 62  1  0  0  0
 29 63  1  0  0  0
 30 31  2  0  0  0
 30 35  1  0  0  0
 31 32  1  0  0  0
 31 64  1  0  0  0
 32 33  2  0  0  0
 32 65  1  0  0  0
 33 34  1  0  0  0
 33 66  1  0  0  0
 34 35  2  0  0  0
 34 67  1  0  0  0
 36 37  1  0  0  0
 36 38  1  0  0  0
 36 39  1  0  0  0
 37 68  1  0  0  0
 37 69  1  0  0  0
 37 70  1  0  0  0
 38 71  1  0  0  0
 38 72  1  0  0  0
 38 73  1  0  0  0
 39 74  1  0  0  0
 39 75  1  0  0  0
 39 76  1  0  0  0
M  END
> <chembl_id>
CHEMBL103667

> <chembl_pref_name>
DORAMAPIMOD

> <s_m_source_file>
sdf/inactives_sanitized.sdf

> <i_m_source_file_index>
213

> <i_lp_mmshare_version>
49012

> <i_m_ct_stereo_status>
1

> <i_f3d_flags>
0

> <s_epik_input>
W0NIM11jMVtjSF1bY0hdYyhbY0hdW2NIXTEpLW4ybmMoQyhbQ0gzXSkoW0NIM10pW0NIM10pW2NIXWMyW05IXUMoPU8pW05IXWMoYyhjMzQpW2NIXVtjSF1bY0hdW2NIXTQpW2NIXVtjSF1jM09bQ0gyXVtDSDJdTjVbQ0gyXVtDSDJdT1tDSDJdW0NIMl01

> <s_epik_cmdline>
J2VwaWtfcHl0aG9uJywgJy1waHQnLCAnMC41JywgJy1waCcsICc3LjUnLCAnLW50JywgJy1tYScsICcyMDAnLCAnLWltYWUnLCAnPGluZmlsZS5tYWU+JywgJy1vbWFlJywgJzxvdXRmaWxlLm1hZT4n

> <r_lp_tautomer_probability>
1

> <r_epik_Ionization_Penalty>
  0.0210

> <r_epik_Ionization_Penalty_Charging>
  0.0000

> <r_epik_Ionization_Penalty_Neutral>
  0.0210

> <r_epik_State_Penalty>
  0.0169

> <r_epik_Charging_Adjusted_Penalty>
0.0168943528472879

> <i_epik_Tot_Q>
0

> <i_epik_Tot_abs_Q>
0

> <s_lp_Force_Field>
OPLS3e

> <r_lp_Energy>
60.528677

> <b_lp_Chiralities_Consistent>
1

> <s_lp_Variant>
sdf/inactives_sanitized.sdf:213-1

$$$$
sdf/inactives_sanitized.sdf:214
                    3D
 Schrodinger Suite 2020-1.
 48 52  0  0  1  0            999 V2000
   -4.6079    6.4635   -2.0510 F   0  0  0  0  0  0
   -1.3151    7.8810    2.1211 F   0  0  0  0  0  0
   -5.1661    4.2098   -0.4266 O   0  0  0  0  0  0
   -4.2286    0.1618    0.2702 N   0  0  0  0  0  0
   -4.4713    1.4843    0.2696 N   0  0  0  0  0  0
   -3.0876    3.4649    0.1933 N   0  0  0  0  0  0
    3.4953    0.6981   -0.0501 N   0  0  0  0  0  0
    2.1419   -0.9906   -0.2776 N   0  0  0  0  0  0
    3.4720   -0.6110   -0.3131 N   0  0  0  0  0  0
   -2.2380    1.1456    0.1685 C   0  0  0  0  0  0
   -2.8781   -0.1158    0.2108 C   0  0  0  0  0  0
   -3.3078    2.0941    0.2078 C   0  0  0  0  0  0
   -0.1036    0.0088    0.0731 C   0  0  0  0  0  0
   -0.8371    1.2016    0.1018 C   0  0  0  0  0  0
    1.3914    0.0713   -0.0136 C   0  0  0  0  0  0
   -2.1650   -1.3165    0.1900 C   0  0  0  0  0  0
   -0.7742   -1.2212    0.1190 C   0  0  0  0  0  0
   -3.9960    4.4233   -0.1011 C   0  0  0  0  0  0
   -3.4724    5.8368   -0.0236 C   0  0  0  0  0  0
    2.2257    1.1758    0.1416 C   0  0  0  0  0  0
   -3.8083    6.7865   -1.0058 C   0  0  0  0  0  0
   -2.6232    6.2232    1.0268 C   0  0  0  0  0  0
   -2.1287    7.5249    1.1015 C   0  0  0  0  0  0
    4.7515    1.4371   -0.0427 C   0  0  0  0  0  0
   -3.3095    8.0880   -0.9257 C   0  0  0  0  0  0
   -2.4721    8.4578    0.1253 C   0  0  0  0  0  0
    4.9547    2.2891   -1.2898 C   0  0  0  0  0  0
    5.0535    3.6791   -1.1780 C   0  0  0  0  0  0
    5.0429    1.6806   -2.5460 C   0  0  0  0  0  0
    5.2322    4.4579   -2.3185 C   0  0  0  0  0  0
    5.2208    2.4600   -3.6860 C   0  0  0  0  0  0
    5.3136    3.8450   -3.5672 C   0  0  0  0  0  0
   -4.9937   -0.4958    0.3120 H   0  0  0  0  0  0
   -2.1308    3.7595    0.3214 H   0  0  0  0  0  0
   -0.3381    2.1587    0.0645 H   0  0  0  0  0  0
   -2.6577   -2.2772    0.2242 H   0  0  0  0  0  0
   -0.2064   -2.1403    0.0999 H   0  0  0  0  0  0
    2.0419    2.2190    0.3524 H   0  0  0  0  0  0
   -2.3459    5.5199    1.7996 H   0  0  0  0  0  0
    4.7713    2.0499    0.8602 H   0  0  0  0  0  0
    5.5828    0.7350    0.0496 H   0  0  0  0  0  0
   -3.5704    8.8126   -1.6831 H   0  0  0  0  0  0
   -2.0888    9.4660    0.1815 H   0  0  0  0  0  0
    4.9897    4.1586   -0.2120 H   0  0  0  0  0  0
    4.9698    0.6065   -2.6398 H   0  0  0  0  0  0
    5.3070    5.5322   -2.2359 H   0  0  0  0  0  0
    5.2858    1.9927   -4.6576 H   0  0  0  0  0  0
    5.4502    4.4497   -4.4517 H   0  0  0  0  0  0
  1 21  1  0  0  0
  2 23  1  0  0  0
  3 18  2  0  0  0
  4  5  1  0  0  0
  4 11  1  0  0  0
  4 33  1  0  0  0
  5 12  2  0  0  0
  6 12  1  0  0  0
  6 18  1  0  0  0
  6 34  1  0  0  0
  7  9  1  0  0  0
  7 20  1  0  0  0
  7 24  1  0  0  0
  8  9  2  0  0  0
  8 15  1  0  0  0
 10 11  2  0  0  0
 10 12  1  0  0  0
 10 14  1  0  0  0
 11 16  1  0  0  0
 13 14  2  0  0  0
 13 15  1  0  0  0
 13 17  1  0  0  0
 14 35  1  0  0  0
 15 20  2  0  0  0
 16 17  2  0  0  0
 16 36  1  0  0  0
 17 37  1  0  0  0
 18 19  1  0  0  0
 19 21  2  0  0  0
 19 22  1  0  0  0
 20 38  1  0  0  0
 21 25  1  0  0  0
 22 23  2  0  0  0
 22 39  1  0  0  0
 23 26  1  0  0  0
 24 27  1  0  0  0
 24 40  1  0  0  0
 24 41  1  0  0  0
 25 26  2  0  0  0
 25 42  1  0  0  0
 26 43  1  0  0  0
 27 28  2  0  0  0
 27 29  1  0  0  0
 28 30  1  0  0  0
 28 44  1  0  0  0
 29 31  2  0  0  0
 29 45  1  0  0  0
 30 32  2  0  0  0
 30 46  1  0  0  0
 31 32  1  0  0  0
 31 47  1  0  0  0
 32 48  1  0  0  0
M  END
> <chembl_id>
CHEMBL1995811

> <chembl_pref_name>
None

> <s_m_source_file>
sdf/inactives_sanitized.sdf

> <i_m_source_file_index>
214

> <i_lp_mmshare_version>
49012

> <i_m_ct_stereo_status>
1

> <i_f3d_flags>
0

> <s_epik_input>
RmMoW2NIXTEpW2NIXVtjSF1jKEYpYzFDKD1PKVtOSF1jMm5bbkhdYyhjMjMpW2NIXVtjSF1jKFtjSF0zKS1jKFtjSF00KW5ubjRbQ0gyXWM1W2NIXVtjSF1bY0hdW2NIXVtjSF01

> <s_epik_cmdline>
J2VwaWtfcHl0aG9uJywgJy1waHQnLCAnMC41JywgJy1waCcsICc3LjUnLCAnLW50JywgJy1tYScsICcyMDAnLCAnLWltYWUnLCAnPGluZmlsZS5tYWU+JywgJy1vbWFlJywgJzxvdXRmaWxlLm1hZT4n

> <r_lp_tautomer_probability>
1

> <r_epik_Ionization_Penalty>
  0.0000

> <r_epik_Ionization_Penalty_Charging>
  0.0000

> <r_epik_Ionization_Penalty_Neutral>
  0.0000

> <r_epik_State_Penalty>
 -0.0000

> <r_epik_Charging_Adjusted_Penalty>
0

> <i_epik_Tot_Q>
0

> <i_epik_Tot_abs_Q>
0

> <s_lp_Force_Field>
OPLS3e

> <r_lp_Energy>
42.747569

> <b_lp_Chiralities_Consistent>
1

> <s_lp_Variant>
sdf/inactives_sanitized.sdf:214-1

$$$$
sdf/inactives_sanitized.sdf:215
                    3D
 Schrodinger Suite 2020-1.
 15 16  0  0  1  0            999 V2000
   -2.8384   -2.2842   -1.2825 Br  0  0  0  0  0  0
    1.6884   -0.8859    2.2346 O   0  0  0  0  0  0
    1.3403    1.7981    0.1810 N   0  0  0  0  0  0
    1.9984    1.1385    1.2430 N   0  5  0  0  0  0
    0.3015   -0.1200    0.3954 C   0  0  0  0  0  0
    0.3102    1.0416   -0.3392 C   0  0  0  0  0  0
    1.4037   -0.0228    1.4061 C   0  0  0  0  0  0
   -0.6273   -1.1284    0.1360 C   0  0  0  0  0  0
   -0.6054    1.2543   -1.3681 C   0  0  0  0  0  0
   -1.5549   -0.9332   -0.8944 C   0  0  0  0  0  0
   -1.5432    0.2525   -1.6424 C   0  0  0  0  0  0
    1.6916    2.7133   -0.0615 H   0  0  0  0  0  0
   -0.6393   -2.0430    0.7110 H   0  0  0  0  0  0
   -0.6014    2.1659   -1.9468 H   0  0  0  0  0  0
   -2.2617    0.3956   -2.4359 H   0  0  0  0  0  0
  1 10  1  0  0  0
  2  7  2  0  0  0
  3  4  1  0  0  0
  3  6  1  0  0  0
  3 12  1  0  0  0
  4  7  1  0  0  0
  5  6  1  0  0  0
  5  7  1  0  0  0
  5  8  2  0  0  0
  6  9  2  0  0  0
  8 10  1  0  0  0
  8 13  1  0  0  0
  9 11  1  0  0  0
  9 14  1  0  0  0
 10 11  2  0  0  0
 11 15  1  0  0  0
M  CHG  1   4  -1
M  END
> <chembl_id>
CHEMBL2001613

> <chembl_pref_name>
None

> <s_m_source_file>
sdf/inactives_sanitized.sdf

> <i_m_source_file_index>
215

> <i_lp_mmshare_version>
49012

> <i_m_ct_stereo_status>
1

> <i_f3d_flags>
0

> <s_epik_input>
QnJjKFtjSF0xKVtjSF1bY0hdYyhjMTIpW25IXVtuSF1jMj1P

> <s_epik_cmdline>
J2VwaWtfcHl0aG9uJywgJy1waHQnLCAnMC41JywgJy1waCcsICc3LjUnLCAnLW50JywgJy1tYScsICcyMDAnLCAnLWltYWUnLCAnPGluZmlsZS5tYWU+JywgJy1vbWFlJywgJzxvdXRmaWxlLm1hZT4n

> <r_epik_Ionization_Penalty>
  0.1212

> <r_epik_Ionization_Penalty_Charging>
  0.0000

> <r_epik_Ionization_Penalty_Neutral>
  0.1212

> <r_epik_State_Penalty>
  0.1527

> <r_epik_Charging_Adjusted_Penalty>
0.152697814639859

> <i_epik_Tot_Q>
-1

> <i_epik_Tot_abs_Q>
1

> <s_lp_Force_Field>
OPLS3e

> <r_lp_Energy>
15.451139

> <b_lp_Chiralities_Consistent>
1

> <s_lp_Variant>
sdf/inactives_sanitized.sdf:215-1

$$$$
sdf/inactives_sanitized.sdf:216
                    3D
 Schrodinger Suite 2020-1.
 36 39  0  0  1  0            999 V2000
    4.1105    6.4440   -0.0973 O   0  0  0  0  0  0
   -0.0321    0.0287   -0.0042 O   0  0  0  0  0  0
    5.5727    6.3519   -1.8545 N   0  0  0  0  0  0
    5.4786    0.0375    0.2789 N   0  0  0  0  0  0
    5.0468    4.3763   -0.9476 C   0  0  0  0  0  0
    5.9629    4.1602   -2.0707 C   0  0  0  0  0  0
    4.5835    2.1027    0.0413 C   0  0  0  0  0  0
    3.5235    1.1280    0.0788 C   0  0  0  0  0  0
    6.2583    5.4065   -2.5803 C   0  0  0  0  0  0
    4.8231    5.8118   -0.8773 C   0  0  0  0  0  0
    4.1180   -0.1615    0.2213 C   0  0  0  0  0  0
    4.4415    3.5400   -0.0744 C   0  0  0  0  0  0
    5.7531    1.3763    0.1819 C   0  0  0  0  0  0
    2.1237    1.2149    0.0024 C   0  0  0  0  0  0
    6.5216    3.0224   -2.6624 C   0  0  0  0  0  0
    1.3479    0.0460    0.0636 C   0  0  0  0  0  0
    3.3587   -1.3325    0.2825 C   0  0  0  0  0  0
    7.1181    5.5718   -3.6658 C   0  0  0  0  0  0
    1.9742   -1.1925    0.2000 C   0  0  0  0  0  0
    7.3858    3.1659   -3.7521 C   0  0  0  0  0  0
    7.6859    4.4375   -4.2506 C   0  0  0  0  0  0
   -0.7383    1.2577   -0.1397 C   0  0  0  0  0  0
    5.6134    7.3439   -2.0371 H   0  0  0  0  0  0
    6.2013   -0.6602    0.3837 H   0  0  0  0  0  0
    3.7685    3.9433    0.6705 H   0  0  0  0  0  0
    6.7801    1.7099    0.2186 H   0  0  0  0  0  0
    1.6631    2.1847   -0.1056 H   0  0  0  0  0  0
    6.2954    2.0299   -2.3071 H   0  0  0  0  0  0
    3.8137   -2.3061    0.3900 H   0  0  0  0  0  0
    7.3462    6.5517   -4.0592 H   0  0  0  0  0  0
    1.3638   -2.0830    0.2443 H   0  0  0  0  0  0
    7.8206    2.2909   -4.2125 H   0  0  0  0  0  0
    8.3532    4.5425   -5.0934 H   0  0  0  0  0  0
   -1.8087    1.0558   -0.1770 H   0  0  0  0  0  0
   -0.4679    1.7751   -1.0614 H   0  0  0  0  0  0
   -0.5571    1.9188    0.7091 H   0  0  0  0  0  0
  1 10  2  0  0  0
  2 16  1  0  0  0
  2 22  1  0  0  0
  3  9  1  0  0  0
  3 10  1  0  0  0
  3 23  1  0  0  0
  4 11  1  0  0  0
  4 13  1  0  0  0
  4 24  1  0  0  0
  5  6  1  0  0  0
  5 10  1  0  0  0
  5 12  2  3  0  0
  6  9  2  0  0  0
  6 15  1  0  0  0
  7  8  1  0  0  0
  7 12  1  0  0  0
  7 13  2  0  0  0
  8 11  2  0  0  0
  8 14  1  0  0  0
  9 18  1  0  0  0
 11 17  1  0  0  0
 12 25  1  0  0  0
 13 26  1  0  0  0
 14 16  2  0  0  0
 14 27  1  0  0  0
 15 20  2  0  0  0
 15 28  1  0  0  0
 16 19  1  0  0  0
 17 19  2  0  0  0
 17 29  1  0  0  0
 18 21  2  0  0  0
 18 30  1  0  0  0
 19 31  1  0  0  0
 20 21  1  0  0  0
 20 32  1  0  0  0
 21 33  1  0  0  0
 22 34  1  0  0  0
 22 35  1  0  0  0
 22 36  1  0  0  0
M  END
> <chembl_id>
CHEMBL1997275

> <chembl_pref_name>
None

> <s_m_source_file>
sdf/inactives_sanitized.sdf

> <i_m_source_file_index>
216

> <i_lp_mmshare_version>
49012

> <i_m_ct_stereo_status>
1

> <i_f3d_flags>
0

> <s_epik_input>
W2NIXTFbY0hdW2NIXVtjSF1jKGMxMilbTkhdQyg9TylDXDI9W0NIXVxjM1tjSF1bbkhdYyhjMzQpW2NIXVtjSF1jKFtjSF00KU9bQ0gzXQ==

> <s_epik_cmdline>
J2VwaWtfcHl0aG9uJywgJy1waHQnLCAnMC41JywgJy1waCcsICc3LjUnLCAnLW50JywgJy1tYScsICcyMDAnLCAnLWltYWUnLCAnPGluZmlsZS5tYWU+JywgJy1vbWFlJywgJzxvdXRmaWxlLm1hZT4n

> <r_lp_tautomer_probability>
1

> <r_epik_Ionization_Penalty>
  0.0000

> <r_epik_Ionization_Penalty_Charging>
  0.0000

> <r_epik_Ionization_Penalty_Neutral>
  0.0000

> <r_epik_State_Penalty>
 -0.0000

> <r_epik_Charging_Adjusted_Penalty>
0

> <i_epik_Tot_Q>
0

> <i_epik_Tot_abs_Q>
0

> <s_lp_Force_Field>
OPLS3e

> <r_lp_Energy>
31.221822

> <b_lp_Chiralities_Consistent>
1

> <s_lp_Variant>
sdf/inactives_sanitized.sdf:216-1

$$$$
sdf/inactives_sanitized.sdf:217
                    3D
 Schrodinger Suite 2020-1.
 29 31  0  0  1  0            999 V2000
    2.1675   -1.0934   -0.0603 O   0  0  0  0  0  0
   -4.7166    3.7062    0.6022 N   0  0  0  0  0  0
   -4.0626    2.5341    0.6074 N   0  0  0  0  0  0
   -5.1865    5.9057    0.2200 N   0  0  0  0  0  0
   -2.8359    2.5451    0.0079 C   0  0  0  0  0  0
   -4.2726    4.9160    0.0480 C   0  0  0  0  0  0
   -2.0991    1.2398    0.0030 C   0  0  0  0  0  0
   -2.2990    3.6999   -0.5838 C   0  0  0  0  0  0
   -3.0117    4.9012   -0.5686 C   0  0  0  0  0  0
   -5.9517    3.9750    1.1310 C   0  0  0  0  0  0
   -0.6949    1.2034   -0.0186 C   0  0  0  0  0  0
    0.0162   -0.0080   -0.0279 C   0  0  0  0  0  0
   -2.7850    0.0151    0.0220 C   0  0  0  0  0  0
   -6.1763    5.3242    0.8660 C   0  0  0  0  0  0
   -0.7066   -1.2079   -0.0124 C   0  0  0  0  0  0
   -2.0980   -1.1959    0.0140 C   0  0  0  0  0  0
    1.5148   -0.0491   -0.0511 C   0  0  0  0  0  0
    2.2765    1.2783   -0.0637 C   0  0  0  0  0  0
   -1.3348    3.6771   -1.0694 H   0  0  0  0  0  0
   -2.6029    5.7915   -1.0235 H   0  0  0  0  0  0
   -6.5537    3.2309    1.6317 H   0  0  0  0  0  0
   -0.1558    2.1385   -0.0149 H   0  0  0  0  0  0
   -3.8650   -0.0087    0.0358 H   0  0  0  0  0  0
   -7.0611    5.8781    1.1445 H   0  0  0  0  0  0
   -0.1999   -2.1629   -0.0184 H   0  0  0  0  0  0
   -2.6455   -2.1269    0.0270 H   0  0  0  0  0  0
    1.9962    1.8660   -0.9381 H   0  0  0  0  0  0
    3.3543    1.1144   -0.0861 H   0  0  0  0  0  0
    2.0315    1.8626    0.8233 H   0  0  0  0  0  0
  1 17  2  0  0  0
  2  3  1  0  0  0
  2  6  1  0  0  0
  2 10  1  0  0  0
  3  5  2  0  0  0
  4  6  2  0  0  0
  4 14  1  0  0  0
  5  7  1  0  0  0
  5  8  1  0  0  0
  6  9  1  0  0  0
  7 11  2  0  0  0
  7 13  1  0  0  0
  8  9  2  0  0  0
  8 19  1  0  0  0
  9 20  1  0  0  0
 10 14  2  0  0  0
 10 21  1  0  0  0
 11 12  1  0  0  0
 11 22  1  0  0  0
 12 15  2  0  0  0
 12 17  1  0  0  0
 13 16  2  0  0  0
 13 23  1  0  0  0
 14 24  1  0  0  0
 15 16  1  0  0  0
 15 25  1  0  0  0
 16 26  1  0  0  0
 17 18  1  0  0  0
 18 27  1  0  0  0
 18 28  1  0  0  0
 18 29  1  0  0  0
M  END
> <chembl_id>
CHEMBL1994159

> <chembl_pref_name>
None

> <s_m_source_file>
sdf/inactives_sanitized.sdf

> <i_m_source_file_index>
217

> <i_lp_mmshare_version>
49012

> <i_m_ct_stereo_status>
1

> <i_f3d_flags>
0

> <s_epik_input>
W2NIXTFbY0hdW2NIXWMoQyg9TylbQ0gzXSlbY0hdYzEtYyhuMilbY0hdW2NIXWMobjIzKW5bY0hdW2NIXTM=

> <s_epik_cmdline>
J2VwaWtfcHl0aG9uJywgJy1waHQnLCAnMC41JywgJy1waCcsICc3LjUnLCAnLW50JywgJy1tYScsICcyMDAnLCAnLWltYWUnLCAnPGluZmlsZS5tYWU+JywgJy1vbWFlJywgJzxvdXRmaWxlLm1hZT4n

> <r_lp_tautomer_probability>
1

> <r_epik_Ionization_Penalty>
  0.0005

> <r_epik_Ionization_Penalty_Charging>
  0.0000

> <r_epik_Ionization_Penalty_Neutral>
  0.0005

> <r_epik_State_Penalty>
 -0.0000

> <r_epik_Charging_Adjusted_Penalty>
0

> <i_epik_Tot_Q>
0

> <i_epik_Tot_abs_Q>
0

> <s_lp_Force_Field>
OPLS3e

> <r_lp_Energy>
25.875506

> <b_lp_Chiralities_Consistent>
1

> <s_lp_Variant>
sdf/inactives_sanitized.sdf:217-1

$$$$
sdf/inactives_sanitized.sdf:218
                    3D
 Schrodinger Suite 2020-1.
 53 56  0  0  1  0            999 V2000
   -0.0909    1.8776   -3.8366 C   0  0  0  0  0  0
    0.1152    3.2522   -3.8355 C   0  0  0  0  0  0
    0.0385    3.9647   -2.6436 C   0  0  0  0  0  0
   -0.2385    3.3044   -1.4424 C   0  0  0  0  0  0
   -0.4315    1.9053   -1.4258 C   0  0  0  0  0  0
   -0.3662    1.2013   -2.6482 C   0  0  0  0  0  0
   -0.6235   -0.5082   -2.7561 Cl  0  0  0  0  0  0
    0.2348    5.3040   -2.6613 F   0  0  0  0  0  0
   -0.3363    4.2615    0.0011 Cl  0  0  0  0  0  0
   -0.7081    1.1713   -0.0932 C   0  0  2  0  0  0
    0.0857   -0.0120    0.0669 O   0  0  0  0  0  0
   -2.1885    0.7842    0.0553 C   0  0  0  0  0  0
    1.4715    0.0518    0.0622 C   0  0  0  0  0  0
    2.2027   -1.1388   -0.0713 C   0  0  0  0  0  0
    3.5583   -1.1739   -0.0973 N   0  0  0  0  0  0
    4.2335   -0.0025    0.0070 C   0  0  0  0  0  0
    3.6012    1.2362    0.1489 C   0  0  0  0  0  0
    2.2028    1.2450    0.1904 C   0  0  0  0  0  0
    1.5511   -2.3666   -0.1927 N   0  0  0  0  0  0
    4.3773    2.5074    0.2375 C   0  0  0  0  0  0
    3.9061    3.8095    0.1378 C   0  0  0  0  0  0
    4.9897    4.6395    0.2732 N   0  0  0  0  0  0
    6.1283    3.9457    0.4368 N   0  0  0  0  0  0
    5.7581    2.6856    0.4260 C   0  0  0  0  0  0
    4.9949    6.1089    0.1818 C   0  0  0  0  0  0
    5.6916    6.5137   -1.1398 C   0  0  0  0  0  0
    5.8728    8.0361   -1.2589 C   0  0  0  0  0  0
    6.6235    8.5548   -0.0194 N   0  3  0  0  0  0
    5.8943    8.2315    1.2968 C   0  0  0  0  0  0
    5.7192    6.7081    1.4142 C   0  0  0  0  0  0
   -0.0374    1.3346   -4.7691 H   0  0  0  0  0  0
    0.3282    3.7659   -4.7615 H   0  0  0  0  0  0
   -0.4792    1.8020    0.7647 H   0  0  0  0  0  0
   -2.8330    1.6609   -0.0150 H   0  0  0  0  0  0
   -2.3738    0.3193    1.0240 H   0  0  0  0  0  0
   -2.5052    0.0782   -0.7120 H   0  0  0  0  0  0
    5.3099   -0.0797   -0.0347 H   0  0  0  0  0  0
    1.6935    2.1864    0.3176 H   0  0  0  0  0  0
    0.5417   -2.3929   -0.1843 H   0  0  0  0  0  0
    2.0973   -3.2103   -0.2896 H   0  0  0  0  0  0
    2.9156    4.2098   -0.0236 H   0  0  0  0  0  0
    6.4849    1.8959    0.5476 H   0  0  0  0  0  0
    3.9410    6.3963    0.1780 H   0  0  0  0  0  0
    6.6314    5.9810   -1.2958 H   0  0  0  0  0  0
    5.0489    6.2147   -1.9694 H   0  0  0  0  0  0
    6.4762    8.3202   -2.1216 H   0  0  0  0  0  0
    4.9238    8.5738   -1.2880 H   0  0  0  0  0  0
    7.5475    8.1465    0.0041 H   0  0  0  0  0  0
    6.5106    8.6452    2.0956 H   0  0  0  0  0  0
    4.9436    8.7659    1.2591 H   0  0  0  0  0  0
    5.0956    6.5355    2.2928 H   0  0  0  0  0  0
    6.6673    6.2135    1.6307 H   0  0  0  0  0  0
    6.7442    9.5550   -0.0971 H   0  0  0  0  0  0
  1  6  2  0  0  0
  1  2  1  0  0  0
  1 31  1  0  0  0
  2  3  2  0  0  0
  2 32  1  0  0  0
  3  4  1  0  0  0
  3  8  1  0  0  0
  4  9  1  0  0  0
  4  5  2  0  0  0
  5 10  1  0  0  0
  5  6  1  0  0  0
  6  7  1  0  0  0
 10 11  1  0  0  0
 10 12  1  0  0  0
 10 33  1  0  0  0
 11 13  1  0  0  0
 12 34  1  0  0  0
 12 35  1  0  0  0
 12 36  1  0  0  0
 13 18  2  0  0  0
 13 14  1  0  0  0
 14 15  2  0  0  0
 14 19  1  0  0  0
 15 16  1  0  0  0
 16 17  2  0  0  0
 16 37  1  0  0  0
 17 18  1  0  0  0
 17 20  1  0  0  0
 18 38  1  0  0  0
 19 39  1  0  0  0
 19 40  1  0  0  0
 20 21  2  0  0  0
 20 24  1  0  0  0
 21 22  1  0  0  0
 21 41  1  0  0  0
 22 23  1  0  0  0
 22 25  1  0  0  0
 23 24  2  0  0  0
 24 42  1  0  0  0
 25 26  1  0  0  0
 25 30  1  0  0  0
 25 43  1  0  0  0
 26 27  1  0  0  0
 26 44  1  0  0  0
 26 45  1  0  0  0
 27 28  1  0  0  0
 27 46  1  0  0  0
 27 47  1  0  0  0
 28 29  1  0  0  0
 28 48  1  0  0  0
 28 53  1  0  0  0
 29 30  1  0  0  0
 29 49  1  0  0  0
 29 50  1  0  0  0
 30 51  1  0  0  0
 30 52  1  0  0  0
M  CHG  1  28   1
M  END
> <chembl_id>
CHEMBL1825138

> <chembl_pref_name>
None

> <s_m_source_file>
sdf/inactives_sanitized.sdf

> <i_m_source_file_index>
218

> <i_lp_mmshare_version>
49012

> <i_m_ct_stereo_status>
1

> <i_f3d_flags>
0

> <s_epik_input>
RmMxW2NIXVtjSF1jKENsKWMoYzFDbClbQ0BASF0oW0NIM10pT2MyYyhbTkgyXSluW2NIXWMoW2NIXTIpLWMzW2NIXW4obltjSF0zKVtDSF00W0NIMl1bQ0gyXVtOSF1bQ0gyXVtDSDJdNA==

> <s_epik_cmdline>
J2VwaWtfcHl0aG9uJywgJy1waHQnLCAnMC41JywgJy1waCcsICc3LjUnLCAnLW50JywgJy1tYScsICcyMDAnLCAnLWltYWUnLCAnPGluZmlsZS5tYWU+JywgJy1vbWFlJywgJzxvdXRmaWxlLm1hZT4n

> <r_lp_tautomer_probability>
0.999999404453161

> <r_epik_Ionization_Penalty>
  0.1365

> <r_epik_Ionization_Penalty_Charging>
  0.0060

> <r_epik_Ionization_Penalty_Neutral>
  0.1305

> <r_epik_State_Penalty>
  0.1195

> <r_epik_Charging_Adjusted_Penalty>
0.125562935639785

> <i_epik_Tot_Q>
1

> <i_epik_Tot_abs_Q>
1

> <s_lp_Force_Field>
OPLS3e

> <r_lp_Energy>
31.313448

> <b_lp_Chiralities_Consistent>
1

> <s_lp_Variant>
sdf/inactives_sanitized.sdf:218-1

$$$$
sdf/inactives_sanitized.sdf:219
                    3D
 Schrodinger Suite 2020-1.
 44 46  0  0  1  0            999 V2000
   -5.0498    6.0184   -0.7464 F   0  0  0  0  0  0
   -3.3512    5.4811   -1.9672 F   0  0  0  0  0  0
   -3.0741    5.9721    0.1264 F   0  0  0  0  0  0
   -0.1228    2.5506   -0.0652 O   0  0  0  0  0  0
    0.2647    0.2914   -0.1291 N   0  0  0  0  0  0
   -2.8964    3.1633   -0.3780 N   0  0  0  0  0  0
    4.4864   -0.1287    0.0395 N   0  0  0  0  0  0
   -1.8207    1.0163   -0.0607 N   0  0  0  0  0  0
    2.2770   -1.0654   -0.4295 C   0  0  0  0  0  0
    1.6732    0.1891   -0.0848 C   0  0  0  0  0  0
    3.7028   -1.1689   -0.3537 C   0  0  0  0  0  0
   -4.0416    3.8981   -0.3801 C   0  0  0  0  0  0
   -3.8825    5.3719   -0.7485 C   0  0  0  0  0  0
    1.5420   -2.2111   -0.8519 C   0  0  0  0  0  0
   -2.9622    1.8388   -0.0556 C   0  0  0  0  0  0
    2.1922   -3.4005   -1.1839 C   0  0  0  0  0  0
   -0.5226    1.3852   -0.0770 C   0  0  0  0  0  0
    2.5119    1.2347    0.3333 C   0  0  0  0  0  0
    4.3365   -2.3876   -0.6947 C   0  0  0  0  0  0
   -5.2859    3.3370   -0.0673 C   0  0  0  0  0  0
    3.5809   -3.4819   -1.1027 C   0  0  0  0  0  0
    3.8867    1.0358    0.3741 C   0  0  0  0  0  0
   -4.1763    1.2196    0.2598 C   0  0  0  0  0  0
   -5.3463    1.9808    0.2554 C   0  0  0  0  0  0
    1.3863   -4.6101   -1.6366 C   0  0  0  0  0  0
    1.1805   -5.6437   -0.5149 C   0  0  0  0  0  0
    0.3685   -6.8636   -0.9707 C   0  0  0  0  0  0
   -0.2102   -0.5960   -0.2026 H   0  0  0  0  0  0
   -2.0106    0.0294    0.0319 H   0  0  0  0  0  0
    0.4650   -2.1597   -0.9189 H   0  0  0  0  0  0
    2.1311    2.1948    0.6426 H   0  0  0  0  0  0
    5.4132   -2.4655   -0.6376 H   0  0  0  0  0  0
   -6.1889    3.9297   -0.0741 H   0  0  0  0  0  0
    4.0832   -4.4035   -1.3594 H   0  0  0  0  0  0
    4.5419    1.8327    0.6938 H   0  0  0  0  0  0
   -4.2205    0.1680    0.5054 H   0  0  0  0  0  0
   -6.2936    1.5220    0.4982 H   0  0  0  0  0  0
    0.4187   -4.2798   -2.0189 H   0  0  0  0  0  0
    1.8915   -5.0692   -2.4881 H   0  0  0  0  0  0
    2.1487   -5.9806   -0.1413 H   0  0  0  0  0  0
    0.6733   -5.1726    0.3285 H   0  0  0  0  0  0
    0.2408   -7.5736   -0.1530 H   0  0  0  0  0  0
    0.8659   -7.3868   -1.7879 H   0  0  0  0  0  0
   -0.6250   -6.5729   -1.3143 H   0  0  0  0  0  0
  1 13  1  0  0  0
  2 13  1  0  0  0
  3 13  1  0  0  0
  4 17  2  0  0  0
  5 10  1  0  0  0
  5 17  1  0  0  0
  5 28  1  0  0  0
  6 12  2  0  0  0
  6 15  1  0  0  0
  7 11  2  0  0  0
  7 22  1  0  0  0
  8 15  1  0  0  0
  8 17  1  0  0  0
  8 29  1  0  0  0
  9 10  2  0  0  0
  9 11  1  0  0  0
  9 14  1  0  0  0
 10 18  1  0  0  0
 11 19  1  0  0  0
 12 13  1  0  0  0
 12 20  1  0  0  0
 14 16  2  0  0  0
 14 30  1  0  0  0
 15 23  2  0  0  0
 16 21  1  0  0  0
 16 25  1  0  0  0
 18 22  2  0  0  0
 18 31  1  0  0  0
 19 21  2  0  0  0
 19 32  1  0  0  0
 20 24  2  0  0  0
 20 33  1  0  0  0
 21 34  1  0  0  0
 22 35  1  0  0  0
 23 24  1  0  0  0
 23 36  1  0  0  0
 24 37  1  0  0  0
 25 26  1  0  0  0
 25 38  1  0  0  0
 25 39  1  0  0  0
 26 27  1  0  0  0
 26 40  1  0  0  0
 26 41  1  0  0  0
 27 42  1  0  0  0
 27 43  1  0  0  0
 27 44  1  0  0  0
M  END
> <chembl_id>
CHEMBL1987430

> <chembl_pref_name>
None

> <s_m_source_file>
sdf/inactives_sanitized.sdf

> <i_m_source_file_index>
219

> <i_lp_mmshare_version>
49012

> <i_m_ct_stereo_status>
1

> <i_f3d_flags>
0

> <s_epik_input>
RkMoRikoRiljMW5jKFtjSF1bY0hdW2NIXTEpW05IXUMoPU8pW05IXWMyW2NIXVtjSF1uYyhjMjMpW2NIXVtjSF1jKFtjSF0zKVtDSDJdW0NIMl1bQ0gzXQ==

> <s_epik_cmdline>
J2VwaWtfcHl0aG9uJywgJy1waHQnLCAnMC41JywgJy1waCcsICc3LjUnLCAnLW50JywgJy1tYScsICcyMDAnLCAnLWltYWUnLCAnPGluZmlsZS5tYWU+JywgJy1vbWFlJywgJzxvdXRmaWxlLm1hZT4n

> <r_epik_Ionization_Penalty>
  0.0422

> <r_epik_Ionization_Penalty_Charging>
  0.0000

> <r_epik_Ionization_Penalty_Neutral>
  0.0422

> <r_epik_State_Penalty>
  0.0356

> <r_epik_Charging_Adjusted_Penalty>
0.0355981784408966

> <i_epik_Tot_Q>
0

> <i_epik_Tot_abs_Q>
0

> <s_lp_Force_Field>
OPLS3e

> <r_lp_Energy>
48.19686

> <b_lp_Chiralities_Consistent>
1

> <s_lp_Variant>
sdf/inactives_sanitized.sdf:219-1

$$$$
sdf/inactives_sanitized.sdf:220
                    3D
 Schrodinger Suite 2020-1.
 40 43  0  0  1  0            999 V2000
    0.2423    0.5787    0.0875 S   0  0  0  0  0  0
    9.8481    0.6873    1.1938 O   0  0  0  0  0  0
   -0.5758    0.5283   -1.1295 O   0  0  0  0  0  0
   -0.3929    0.4082    1.3990 O   0  0  0  0  0  0
    6.3460    1.7656    1.2862 N   0  0  0  0  0  0
    1.5321   -0.6380   -0.0554 N   0  0  3  0  0  0
    7.9053   -0.4447    1.1368 N   0  0  0  0  0  0
    5.6752    0.5207    1.2205 C   0  0  0  0  0  0
    7.7389    1.8695    1.2798 C   0  0  0  0  0  0
    6.5131   -0.6036    1.1432 C   0  0  0  0  0  0
    8.6193    0.7051    1.2029 C   0  0  0  0  0  0
    3.7325   -0.9329    1.1588 C   0  0  0  0  0  0
    4.2868    0.3489    1.2309 C   0  0  0  0  0  0
    1.8274   -1.2695   -1.3719 C   0  0  0  0  0  0
    2.2228   -1.1262    1.1704 C   0  0  0  0  0  0
    5.8216    3.0376    1.3647 C   0  0  0  0  0  0
    5.9609   -1.8838    1.0776 C   0  0  0  0  0  0
    8.0448    3.2257    1.3590 C   0  0  0  0  0  0
    4.5756   -2.0464    1.0885 C   0  0  0  0  0  0
    3.1921   -1.0190   -2.0028 C   0  0  0  0  0  0
    1.9890   -0.3529   -2.5783 C   0  0  0  0  0  0
    6.8562    3.9526    1.4117 C   0  0  0  0  0  0
    1.1627    2.2262    0.1080 C   0  0  0  0  0  0
    8.4733   -1.2776    1.0827 H   0  0  0  0  0  0
    3.6376    1.2070    1.2950 H   0  0  0  0  0  0
    1.3120   -2.2139   -1.5489 H   0  0  0  0  0  0
    1.8280   -0.5918    2.0346 H   0  0  0  0  0  0
    1.9554   -2.1728    1.3219 H   0  0  0  0  0  0
    4.7526    3.1886    1.3819 H   0  0  0  0  0  0
    6.5991   -2.7538    1.0192 H   0  0  0  0  0  0
    9.0398    3.6471    1.3768 H   0  0  0  0  0  0
    4.1585   -3.0417    1.0351 H   0  0  0  0  0  0
    3.9274   -0.3930   -1.4994 H   0  0  0  0  0  0
    3.6591   -1.8375   -2.5505 H   0  0  0  0  0  0
    1.6002   -0.6973   -3.5366 H   0  0  0  0  0  0
    1.8806    0.7242   -2.4598 H   0  0  0  0  0  0
    6.7633    5.0269    1.4771 H   0  0  0  0  0  0
    0.4332    3.0332    0.0458 H   0  0  0  0  0  0
    1.8434    2.2753   -0.7404 H   0  0  0  0  0  0
    1.7168    2.3116    1.0409 H   0  0  0  0  0  0
  1  3  2  0  0  0
  1  4  2  0  0  0
  1  6  1  0  0  0
  1 23  1  0  0  0
  2 11  2  0  0  0
  5  8  1  0  0  0
  5  9  1  0  0  0
  5 16  1  0  0  0
  6 14  1  0  0  0
  6 15  1  0  0  0
  7 10  1  0  0  0
  7 11  1  0  0  0
  7 24  1  0  0  0
  8 10  2  0  0  0
  8 13  1  0  0  0
  9 11  1  0  0  0
  9 18  2  0  0  0
 10 17  1  0  0  0
 12 13  2  0  0  0
 12 15  1  0  0  0
 12 19  1  0  0  0
 13 25  1  0  0  0
 14 20  1  0  0  0
 14 21  1  0  0  0
 14 26  1  0  0  0
 15 27  1  0  0  0
 15 28  1  0  0  0
 16 22  2  0  0  0
 16 29  1  0  0  0
 17 19  2  0  0  0
 17 30  1  0  0  0
 18 22  1  0  0  0
 18 31  1  0  0  0
 19 32  1  0  0  0
 20 21  1  0  0  0
 20 33  1  0  0  0
 20 34  1  0  0  0
 21 35  1  0  0  0
 21 36  1  0  0  0
 22 37  1  0  0  0
 23 38  1  0  0  0
 23 39  1  0  0  0
 23 40  1  0  0  0
M  END
> <chembl_id>
CHEMBL1978448

> <chembl_pref_name>
None

> <s_m_source_file>
sdf/inactives_sanitized.sdf

> <i_m_source_file_index>
220

> <i_lp_mmshare_version>
49012

> <i_m_ct_stereo_status>
1

> <i_f3d_flags>
0

> <s_epik_input>
W0NIMl0xW0NIMl1bQ0hdMU4oUyg9TykoPU8pW0NIM10pW0NIMl1jKFtjSF0yKVtjSF1bY0hdYyhjMm4zNClbbkhdYyg9TyljM1tjSF1bY0hdW2NIXTQ=

> <s_epik_cmdline>
J2VwaWtfcHl0aG9uJywgJy1waHQnLCAnMC41JywgJy1waCcsICc3LjUnLCAnLW50JywgJy1tYScsICcyMDAnLCAnLWltYWUnLCAnPGluZmlsZS5tYWU+JywgJy1vbWFlJywgJzxvdXRmaWxlLm1hZT4n

> <r_lp_tautomer_probability>
1

> <r_epik_Ionization_Penalty>
  0.0000

> <r_epik_Ionization_Penalty_Charging>
  0.0000

> <r_epik_Ionization_Penalty_Neutral>
  0.0000

> <r_epik_State_Penalty>
 -0.0000

> <r_epik_Charging_Adjusted_Penalty>
4.0534920107576e-05

> <i_epik_Tot_Q>
0

> <i_epik_Tot_abs_Q>
0

> <s_lp_Force_Field>
OPLS3e

> <r_lp_Energy>
4.519587

> <b_lp_Chiralities_Consistent>
1

> <s_lp_Variant>
sdf/inactives_sanitized.sdf:220-1

$$$$
sdf/inactives_sanitized.sdf:221
                    3D
 Schrodinger Suite 2020-1.
 41 44  0  0  1  0            999 V2000
    4.1177   -2.7434    0.0225 Cl  0  0  0  0  0  0
    2.1431    1.2746    0.1174 N   0  0  0  0  0  0
    5.9268    4.0028    0.0093 N   0  0  0  0  0  0
    2.0064   -1.1294    0.1480 N   0  0  0  0  0  0
    4.7647    6.0072   -0.6859 N   0  0  0  0  0  0
    0.0428    0.1329    0.2584 N   0  0  0  0  0  0
    4.2354    2.4883   -0.0591 C   0  0  0  0  0  0
    3.7273    3.7827   -0.4573 C   0  0  0  0  0  0
    3.4977    1.1919    0.0321 C   0  0  0  0  0  0
    4.8157    4.7030   -0.3964 C   0  0  0  0  0  0
    5.5843    2.6886    0.2044 C   0  0  0  0  0  0
    1.4448    0.1066    0.1721 C   0  0  0  0  0  0
    4.1537   -0.0443   -0.0040 C   0  0  0  0  0  0
    2.4829    4.3023   -0.8664 C   0  0  0  0  0  0
    3.3613   -1.1933    0.0601 C   0  0  0  0  0  0
    2.4008    5.6614   -1.1752 C   0  0  0  0  0  0
    3.5420    6.4576   -1.0722 C   0  0  0  0  0  0
   -0.7294    1.3621    0.0669 C   0  0  0  0  0  0
   -2.0865    1.2175    0.7897 C   0  0  0  0  0  0
   -0.9248    1.6144   -1.4469 C   0  0  0  0  0  0
   -2.9851    2.4464    0.5457 C   0  0  0  0  0  0
   -1.8209    2.8431   -1.6997 C   0  0  0  0  0  0
   -3.1697    2.7345   -0.9587 C   0  0  0  0  0  0
    6.8632    4.3536    0.1508 H   0  0  0  0  0  0
   -0.4385   -0.7446    0.1240 H   0  0  0  0  0  0
    6.3442    1.9910    0.5253 H   0  0  0  0  0  0
    5.2286   -0.1142   -0.0825 H   0  0  0  0  0  0
    1.6081    3.6739   -0.9421 H   0  0  0  0  0  0
    1.4622    6.0928   -1.4908 H   0  0  0  0  0  0
    3.4855    7.5098   -1.3097 H   0  0  0  0  0  0
   -0.1780    2.2025    0.4920 H   0  0  0  0  0  0
   -2.6047    0.3186    0.4495 H   0  0  0  0  0  0
   -1.9291    1.0918    1.8621 H   0  0  0  0  0  0
    0.0402    1.7675   -1.9326 H   0  0  0  0  0  0
   -1.3698    0.7383   -1.9225 H   0  0  0  0  0  0
   -3.9571    2.2955    1.0169 H   0  0  0  0  0  0
   -2.5449    3.3192    1.0304 H   0  0  0  0  0  0
   -1.2991    3.7445   -1.3737 H   0  0  0  0  0  0
   -1.9938    2.9630   -2.7700 H   0  0  0  0  0  0
   -3.7652    1.9380   -1.4077 H   0  0  0  0  0  0
   -3.7423    3.6529   -1.0934 H   0  0  0  0  0  0
  1 15  1  0  0  0
  2  9  2  0  0  0
  2 12  1  0  0  0
  3 10  1  0  0  0
  3 11  1  0  0  0
  3 24  1  0  0  0
  4 12  2  0  0  0
  4 15  1  0  0  0
  5 10  2  0  0  0
  5 17  1  0  0  0
  6 12  1  0  0  0
  6 18  1  0  0  0
  6 25  1  0  0  0
  7  8  1  0  0  0
  7  9  1  0  0  0
  7 11  2  0  0  0
  8 10  1  0  0  0
  8 14  2  0  0  0
  9 13  1  0  0  0
 11 26  1  0  0  0
 13 15  2  0  0  0
 13 27  1  0  0  0
 14 16  1  0  0  0
 14 28  1  0  0  0
 16 17  2  0  0  0
 16 29  1  0  0  0
 17 30  1  0  0  0
 18 19  1  0  0  0
 18 20  1  0  0  0
 18 31  1  0  0  0
 19 21  1  0  0  0
 19 32  1  0  0  0
 19 33  1  0  0  0
 20 22  1  0  0  0
 20 34  1  0  0  0
 20 35  1  0  0  0
 21 23  1  0  0  0
 21 36  1  0  0  0
 21 37  1  0  0  0
 22 23  1  0  0  0
 22 38  1  0  0  0
 22 39  1  0  0  0
 23 40  1  0  0  0
 23 41  1  0  0  0
M  END
> <chembl_id>
CHEMBL2006439

> <chembl_pref_name>
None

> <s_m_source_file>
sdf/inactives_sanitized.sdf

> <i_m_source_file_index>
221

> <i_lp_mmshare_version>
49012

> <i_m_ct_stereo_status>
1

> <i_f3d_flags>
0

> <s_epik_input>
W0NIMl0xW0NIMl1bQ0gyXVtDSDJdW0NIMl1bQ0hdMVtOSF1jKG5jKENsKVtjSF0yKW5jMi1jM1tjSF1bbkhdYyhjMzQpbltjSF1bY0hdW2NIXTQ=

> <s_epik_cmdline>
J2VwaWtfcHl0aG9uJywgJy1waHQnLCAnMC41JywgJy1waCcsICc3LjUnLCAnLW50JywgJy1tYScsICcyMDAnLCAnLWltYWUnLCAnPGluZmlsZS5tYWU+JywgJy1vbWFlJywgJzxvdXRmaWxlLm1hZT4n

> <r_lp_tautomer_probability>
1

> <r_epik_Ionization_Penalty>
  0.0003

> <r_epik_Ionization_Penalty_Charging>
  0.0000

> <r_epik_Ionization_Penalty_Neutral>
  0.0003

> <r_epik_State_Penalty>
 -0.0000

> <r_epik_Charging_Adjusted_Penalty>
0

> <i_epik_Tot_Q>
0

> <i_epik_Tot_abs_Q>
0

> <s_lp_Force_Field>
OPLS3e

> <r_lp_Energy>
35.33455

> <b_lp_Chiralities_Consistent>
1

> <s_lp_Variant>
sdf/inactives_sanitized.sdf:221-1

$$$$
sdf/inactives_sanitized.sdf:222
                    3D
 Schrodinger Suite 2020-1.
 57 60  0  0  1  0            999 V2000
   -2.6218   -3.4953   -0.3599 C   0  0  0  0  0  0
   -3.0843   -2.1513   -0.2826 O   0  0  0  0  0  0
   -2.1730   -1.1285   -0.0901 C   0  0  0  0  0  0
   -0.7910   -1.3284    0.0414 C   0  0  0  0  0  0
    0.0724   -0.2475    0.2231 C   0  0  0  0  0  0
    1.4579   -0.4557    0.2897 N   0  0  0  0  0  0
    2.2736   -0.9457   -0.7414 C   0  0  0  0  0  0
    3.5663   -1.2241   -0.4334 N   0  0  0  0  0  0
    4.3444   -1.6912   -1.4472 C   0  0  0  0  0  0
    3.8589   -1.8737   -2.7460 C   0  0  0  0  0  0
    4.6682   -2.3342   -3.7293 F   0  0  0  0  0  0
    2.5151   -1.5543   -2.9809 C   0  0  0  0  0  0
    1.9673   -1.6864   -4.2704 N   0  0  0  0  0  0
    0.6489   -1.4620   -4.7029 C   0  0  0  0  0  0
    0.4412   -0.8609   -5.9534 C   0  0  0  0  0  0
   -0.8639   -0.5552   -6.3561 C   0  0  0  0  0  0
   -1.9152   -0.8637   -5.4942 C   0  0  0  0  0  0
   -3.2249   -0.5832   -5.8319 O   0  0  0  0  0  0
   -4.1161   -0.3066   -4.7144 C   0  0  0  0  0  0
   -3.7579    1.0703   -4.0950 C   0  0  0  0  0  0
   -5.5496   -0.4041   -5.2803 C   0  0  0  0  0  0
   -3.9648   -1.3716   -3.5616 C   0  0  0  0  0  0
   -4.8809   -1.7992   -2.8593 O   0  0  0  0  0  0
   -2.6917   -1.8020   -3.4314 N   0  0  0  0  0  0
   -1.6414   -1.5038   -4.2893 C   0  0  0  0  0  0
   -0.3860   -1.8018   -3.8800 N   0  0  0  0  0  0
    1.7246   -1.0914   -1.9760 N   0  0  0  0  0  0
   -0.4429    1.0451    0.2989 C   0  0  0  0  0  0
   -1.8214    1.2745    0.1578 C   0  0  0  0  0  0
   -2.4024    2.5295    0.1894 O   0  0  0  0  0  0
   -1.5795    3.6758    0.3747 C   0  0  0  0  0  0
   -2.6755    0.1791   -0.0357 C   0  0  0  0  0  0
   -4.0211    0.3943   -0.2139 O   0  0  0  0  0  0
   -4.7798    0.3489    0.9861 C   0  0  0  0  0  0
   -3.4712   -4.1577   -0.5252 H   0  0  0  0  0  0
   -2.1357   -3.8046    0.5665 H   0  0  0  0  0  0
   -1.9294   -3.6341   -1.1916 H   0  0  0  0  0  0
   -0.3686   -2.3207   -0.0158 H   0  0  0  0  0  0
    1.8935   -0.3335    1.1923 H   0  0  0  0  0  0
    5.3729   -1.9145   -1.2043 H   0  0  0  0  0  0
    2.6405   -1.8498   -5.0047 H   0  0  0  0  0  0
    1.2748   -0.6065   -6.5921 H   0  0  0  0  0  0
   -1.0506   -0.0759   -7.3057 H   0  0  0  0  0  0
   -4.4586    1.3507   -3.3066 H   0  0  0  0  0  0
   -3.8080    1.8529   -4.8523 H   0  0  0  0  0  0
   -2.7538    1.1008   -3.6685 H   0  0  0  0  0  0
   -6.3040   -0.1757   -4.5255 H   0  0  0  0  0  0
   -5.7636   -1.3947   -5.6848 H   0  0  0  0  0  0
   -5.6909    0.3127   -6.0898 H   0  0  0  0  0  0
   -2.5352   -2.4690   -2.6901 H   0  0  0  0  0  0
    0.2439    1.8669    0.4367 H   0  0  0  0  0  0
   -2.2027    4.5700    0.3743 H   0  0  0  0  0  0
   -0.8519    3.7801   -0.4316 H   0  0  0  0  0  0
   -1.0543    3.6406    1.3303 H   0  0  0  0  0  0
   -5.8310    0.5201    0.7552 H   0  0  0  0  0  0
   -4.4627    1.1207    1.6894 H   0  0  0  0  0  0
   -4.7011   -0.6237    1.4749 H   0  0  0  0  0  0
  1  2  1  0  0  0
  1 35  1  0  0  0
  1 36  1  0  0  0
  1 37  1  0  0  0
  2  3  1  0  0  0
  3  4  2  0  0  0
  3 32  1  0  0  0
  4  5  1  0  0  0
  4 38  1  0  0  0
  5  6  1  0  0  0
  5 28  2  0  0  0
  6  7  1  0  0  0
  6 39  1  0  0  0
  7  8  2  0  0  0
  7 27  1  0  0  0
  8  9  1  0  0  0
  9 10  2  0  0  0
  9 40  1  0  0  0
 10 11  1  0  0  0
 10 12  1  0  0  0
 12 13  1  0  0  0
 12 27  2  0  0  0
 13 14  1  0  0  0
 13 41  1  0  0  0
 14 15  2  0  0  0
 14 26  1  0  0  0
 15 16  1  0  0  0
 15 42  1  0  0  0
 16 17  2  0  0  0
 16 43  1  0  0  0
 17 18  1  0  0  0
 17 25  1  0  0  0
 18 19  1  0  0  0
 19 20  1  0  0  0
 19 21  1  0  0  0
 19 22  1  0  0  0
 20 44  1  0  0  0
 20 45  1  0  0  0
 20 46  1  0  0  0
 21 47  1  0  0  0
 21 48  1  0  0  0
 21 49  1  0  0  0
 22 23  2  0  0  0
 22 24  1  0  0  0
 24 25  1  0  0  0
 24 50  1  0  0  0
 25 26  2  0  0  0
 28 29  1  0  0  0
 28 51  1  0  0  0
 29 30  1  0  0  0
 29 32  2  0  0  0
 30 31  1  0  0  0
 31 52  1  0  0  0
 31 53  1  0  0  0
 31 54  1  0  0  0
 32 33  1  0  0  0
 33 34  1  0  0  0
 34 55  1  0  0  0
 34 56  1  0  0  0
 34 57  1  0  0  0
M  END
> <chembl_id>
CHEMBL475251

> <chembl_pref_name>
R-406

> <s_m_source_file>
sdf/inactives_sanitized.sdf

> <i_m_source_file_index>
222

> <i_lp_mmshare_version>
49012

> <i_m_ct_stereo_status>
1

> <i_f3d_flags>
0

> <s_epik_input>
W0NIM11PYzFjKE9bQ0gzXSlbY0hdYyhbY0hdYzFPW0NIM10pW05IXWMybltjSF1jKEYpYyhuMilbTkhdYyhbY0hdW2NIXTMpbmMoYzM0KVtOSF1DKD1PKUMoTzQpKFtDSDNdKVtDSDNd

> <s_epik_cmdline>
J2VwaWtfcHl0aG9uJywgJy1waHQnLCAnMC41JywgJy1waCcsICc3LjUnLCAnLW50JywgJy1tYScsICcyMDAnLCAnLWltYWUnLCAnPGluZmlsZS5tYWU+JywgJy1vbWFlJywgJzxvdXRmaWxlLm1hZT4n

> <r_lp_tautomer_probability>
1

> <r_epik_Ionization_Penalty>
  0.0006

> <r_epik_Ionization_Penalty_Charging>
  0.0000

> <r_epik_Ionization_Penalty_Neutral>
  0.0006

> <r_epik_State_Penalty>
 -0.0000

> <r_epik_Charging_Adjusted_Penalty>
0

> <i_epik_Tot_Q>
0

> <i_epik_Tot_abs_Q>
0

> <s_lp_Force_Field>
OPLS3e

> <r_lp_Energy>
56.870778

> <b_lp_Chiralities_Consistent>
1

> <s_lp_Variant>
sdf/inactives_sanitized.sdf:222-1

$$$$
sdf/inactives_sanitized.sdf:223
                    3D
 Schrodinger Suite 2020-1.
 63 66  0  0  1  0            999 V2000
    8.9908   -0.0416    3.3666 F   0  0  0  0  0  0
    5.1109    6.9602   -0.8120 O   0  0  0  0  0  0
   -3.1849   -0.2509   -2.7703 O   0  0  0  0  0  0
    3.3901    3.7517   -0.5041 N   0  0  0  0  0  0
    5.5079    4.2321    0.1870 N   0  0  0  0  0  0
    1.8722    1.2700    0.2182 N   0  0  0  0  0  0
    2.9148    6.3154   -1.4903 N   0  0  0  0  0  0
    1.8623   -1.1327    0.3942 N   0  0  0  0  0  0
   -0.1647    0.0228    0.4223 N   0  0  0  0  0  0
    3.9270    2.5954    0.0468 C   0  0  0  0  0  0
    5.2141    2.9827    0.4848 C   0  0  0  0  0  0
    4.3987    4.7275   -0.4051 C   0  0  0  0  0  0
    3.2320    1.2632    0.1485 C   0  0  0  0  0  0
    4.1127    6.0085   -0.9163 C   0  0  0  0  0  0
    6.2197    2.1770    1.2408 C   0  0  0  0  0  0
    2.1802    4.0546   -1.0889 C   0  0  0  0  0  0
    3.9486    0.0594    0.1745 C   0  0  0  0  0  0
    1.9743    5.3454   -1.5683 C   0  0  0  0  0  0
    7.5532    2.1286    0.8190 C   0  0  0  0  0  0
    5.8304    1.4814    2.3902 C   0  0  0  0  0  0
    1.2362    0.0702    0.3381 C   0  0  0  0  0  0
    3.2167   -1.1217    0.3037 C   0  0  0  0  0  0
    8.4854    1.3807    1.5337 C   0  0  0  0  0  0
    6.7624    0.7335    3.1042 C   0  0  0  0  0  0
    8.0860    0.6851    2.6727 C   0  0  0  0  0  0
    4.8891    8.2690   -1.3389 C   0  0  0  0  0  0
   -1.0163    1.1546    0.0487 C   0  0  0  0  0  0
    6.1349    9.1475   -1.1031 C   0  0  0  0  0  0
   -1.6117    1.0911   -1.3899 C   0  0  0  0  0  0
   -2.5535   -0.1440   -1.5077 C   0  0  0  0  0  0
   -2.4153    2.3945   -1.6194 C   0  0  0  0  0  0
   -0.4866    1.0098   -2.4541 C   0  0  0  0  0  0
    5.8994   10.5884   -1.5908 C   0  0  0  0  0  0
    7.4021    8.5459   -1.7410 C   0  0  0  0  0  0
   -3.7364   -1.0368   -2.7697 H   0  0  0  0  0  0
   -0.5970   -0.8890    0.4614 H   0  0  0  0  0  0
    1.4309    3.2853   -1.1604 H   0  0  0  0  0  0
    5.0248    0.0295    0.0954 H   0  0  0  0  0  0
    1.0373    5.6177   -2.0320 H   0  0  0  0  0  0
    7.8677    2.6668   -0.0638 H   0  0  0  0  0  0
    4.8058    1.5188    2.7320 H   0  0  0  0  0  0
    3.7132   -2.0807    0.3348 H   0  0  0  0  0  0
    9.5139    1.3414    1.2061 H   0  0  0  0  0  0
    6.4601    0.1949    3.9901 H   0  0  0  0  0  0
    4.6679    8.2109   -2.4066 H   0  0  0  0  0  0
    4.0246    8.7174   -0.8448 H   0  0  0  0  0  0
   -1.8269    1.1898    0.7777 H   0  0  0  0  0  0
   -0.4846    2.0961    0.1915 H   0  0  0  0  0  0
    6.3021    9.1967   -0.0257 H   0  0  0  0  0  0
   -3.3322   -0.1076   -0.7445 H   0  0  0  0  0  0
   -2.0024   -1.0697   -1.3371 H   0  0  0  0  0  0
   -2.8555    2.4311   -2.6168 H   0  0  0  0  0  0
   -1.7828    3.2776   -1.5170 H   0  0  0  0  0  0
   -3.2307    2.4941   -0.9017 H   0  0  0  0  0  0
   -0.8876    1.0409   -3.4679 H   0  0  0  0  0  0
    0.0888    0.0875   -2.3675 H   0  0  0  0  0  0
    0.2131    1.8394   -2.3644 H   0  0  0  0  0  0
    5.7184   10.6218   -2.6658 H   0  0  0  0  0  0
    6.7606   11.2237   -1.3803 H   0  0  0  0  0  0
    5.0371   11.0374   -1.0964 H   0  0  0  0  0  0
    7.2963    8.4472   -2.8220 H   0  0  0  0  0  0
    7.6197    7.5561   -1.3381 H   0  0  0  0  0  0
    8.2754    9.1700   -1.5488 H   0  0  0  0  0  0
  1 25  1  0  0  0
  2 14  1  0  0  0
  2 26  1  0  0  0
  3 30  1  0  0  0
  3 35  1  0  0  0
  4 10  1  0  0  0
  4 12  1  0  0  0
  4 16  1  0  0  0
  5 11  1  0  0  0
  5 12  2  0  0  0
  6 13  2  0  0  0
  6 21  1  0  0  0
  7 14  2  0  0  0
  7 18  1  0  0  0
  8 21  2  0  0  0
  8 22  1  0  0  0
  9 21  1  0  0  0
  9 27  1  0  0  0
  9 36  1  0  0  0
 10 11  2  0  0  0
 10 13  1  0  0  0
 11 15  1  0  0  0
 12 14  1  0  0  0
 13 17  1  0  0  0
 15 19  2  0  0  0
 15 20  1  0  0  0
 16 18  2  0  0  0
 16 37  1  0  0  0
 17 22  2  0  0  0
 17 38  1  0  0  0
 18 39  1  0  0  0
 19 23  1  0  0  0
 19 40  1  0  0  0
 20 24  2  0  0  0
 20 41  1  0  0  0
 22 42  1  0  0  0
 23 25  2  0  0  0
 23 43  1  0  0  0
 24 25  1  0  0  0
 24 44  1  0  0  0
 26 28  1  0  0  0
 26 45  1  0  0  0
 26 46  1  0  0  0
 27 29  1  0  0  0
 27 47  1  0  0  0
 27 48  1  0  0  0
 28 33  1  0  0  0
 28 34  1  0  0  0
 28 49  1  0  0  0
 29 30  1  0  0  0
 29 31  1  0  0  0
 29 32  1  0  0  0
 30 50  1  0  0  0
 30 51  1  0  0  0
 31 52  1  0  0  0
 31 53  1  0  0  0
 31 54  1  0  0  0
 32 55  1  0  0  0
 32 56  1  0  0  0
 32 57  1  0  0  0
 33 58  1  0  0  0
 33 59  1  0  0  0
 33 60  1  0  0  0
 34 61  1  0  0  0
 34 62  1  0  0  0
 34 63  1  0  0  0
M  END
> <chembl_id>
CHEMBL1984842

> <chembl_pref_name>
None

> <s_m_source_file>
sdf/inactives_sanitized.sdf

> <i_m_source_file_index>
223

> <i_lp_mmshare_version>
49012

> <i_m_ct_stereo_status>
1

> <i_f3d_flags>
0

> <s_epik_input>
W0NIM11bQ0hdKFtDSDNdKVtDSDJdT2MobltjSF1bY0hdMSljKG4xMiluYygtYzNbY0hdW2NIXWMoRilbY0hdW2NIXTMpYzItYzRuYyhuW2NIXVtjSF00KVtOSF1bQ0gyXUMoW0NIM10pKFtDSDNdKVtDSDJdW09IXQ==

> <s_epik_cmdline>
J2VwaWtfcHl0aG9uJywgJy1waHQnLCAnMC41JywgJy1waCcsICc3LjUnLCAnLW50JywgJy1tYScsICcyMDAnLCAnLWltYWUnLCAnPGluZmlsZS5tYWU+JywgJy1vbWFlJywgJzxvdXRmaWxlLm1hZT4n

> <r_lp_tautomer_probability>
1

> <r_epik_Ionization_Penalty>
  0.0002

> <r_epik_Ionization_Penalty_Charging>
  0.0000

> <r_epik_Ionization_Penalty_Neutral>
  0.0002

> <r_epik_State_Penalty>
 -0.0000

> <r_epik_Charging_Adjusted_Penalty>
1.85061058108552e-06

> <i_epik_Tot_Q>
0

> <i_epik_Tot_abs_Q>
0

> <s_lp_Force_Field>
OPLS3e

> <r_lp_Energy>
44.116842

> <b_lp_Chiralities_Consistent>
1

> <s_lp_Variant>
sdf/inactives_sanitized.sdf:223-1

$$$$
sdf/inactives_sanitized.sdf:224
                    3D
 Schrodinger Suite 2020-1.
 55 58  0  0  1  0            999 V2000
   -0.5577    3.6939   -0.3981 C   0  0  0  0  0  0
    0.0267    2.3974   -0.3305 O   0  0  0  0  0  0
   -0.7700    1.3004   -0.0497 C   0  0  0  0  0  0
   -2.1519    1.3895    0.1790 C   0  0  0  0  0  0
   -2.9172    0.2360    0.4589 C   0  0  0  0  0  0
   -4.2572    0.3713    0.6700 N   0  0  0  0  0  0
   -4.9483   -0.7637    0.9323 C   0  0  0  0  0  0
   -4.4468   -2.0176    1.0099 N   0  0  0  0  0  0
   -3.1116   -2.1566    0.8077 C   0  0  0  0  0  0
   -2.5573   -3.4504    0.8671 N   0  0  0  0  0  0
   -3.0773   -4.7072    1.2239 C   0  0  0  0  0  0
   -4.1834   -4.8737    2.0696 C   0  0  0  0  0  0
   -4.6359   -6.1521    2.3971 C   0  0  0  0  0  0
   -3.9852   -7.2775    1.8926 C   0  0  0  0  0  0
   -4.4338   -8.5120    2.2187 F   0  0  0  0  0  0
   -2.8733   -7.1224    1.0612 C   0  0  0  0  0  0
   -2.0459   -8.5030    0.4332 Cl  0  0  0  0  0  0
   -2.4226   -5.8421    0.7348 C   0  0  0  0  0  0
   -2.2731   -1.0359    0.5131 C   0  0  0  0  0  0
   -0.8757   -1.1030    0.2776 C   0  0  0  0  0  0
   -0.1325    0.0541   -0.0028 C   0  0  0  0  0  0
    1.2314    0.0402   -0.2439 O   0  0  0  0  0  0
    1.9325   -1.2003   -0.2545 C   0  0  0  0  0  0
    3.4096   -0.9399   -0.5891 C   0  0  0  0  0  0
    4.3483   -2.1631   -0.5025 C   0  0  0  0  0  0
    3.9696   -3.2274   -1.4409 N   0  0  0  0  0  0
    3.1563   -4.2790   -0.8105 C   0  0  0  0  0  0
    2.7930   -5.3855   -1.8231 C   0  0  0  0  0  0
    3.9778   -5.9166   -2.4065 O   0  0  0  0  0  0
    4.7376   -4.9264   -3.0916 C   0  0  0  0  0  0
    5.1417   -3.7972   -2.1187 C   0  0  0  0  0  0
    0.2162    4.4251   -0.6308 H   0  0  0  0  0  0
   -1.0067    3.9807    0.5540 H   0  0  0  0  0  0
   -1.3125    3.7524   -1.1838 H   0  0  0  0  0  0
   -2.6648    2.3395    0.1455 H   0  0  0  0  0  0
   -6.0103   -0.6566    1.0969 H   0  0  0  0  0  0
   -1.5872   -3.4814    0.5903 H   0  0  0  0  0  0
   -4.6970   -4.0267    2.4972 H   0  0  0  0  0  0
   -5.4899   -6.2689    3.0480 H   0  0  0  0  0  0
   -1.5599   -5.7351    0.0923 H   0  0  0  0  0  0
   -0.3976   -2.0694    0.3206 H   0  0  0  0  0  0
    1.8530   -1.6858    0.7199 H   0  0  0  0  0  0
    1.4945   -1.8549   -1.0095 H   0  0  0  0  0  0
    3.5031   -0.4736   -1.5708 H   0  0  0  0  0  0
    3.7838   -0.1935    0.1129 H   0  0  0  0  0  0
    5.3630   -1.8151   -0.7056 H   0  0  0  0  0  0
    4.3711   -2.5490    0.5184 H   0  0  0  0  0  0
    3.7006   -4.7083    0.0324 H   0  0  0  0  0  0
    2.2453   -3.8584   -0.3883 H   0  0  0  0  0  0
    2.2602   -6.1918   -1.3188 H   0  0  0  0  0  0
    2.1228   -5.0051   -2.5965 H   0  0  0  0  0  0
    5.6298   -5.3966   -3.5054 H   0  0  0  0  0  0
    4.1731   -4.5310   -3.9385 H   0  0  0  0  0  0
    5.8519   -4.1712   -1.3790 H   0  0  0  0  0  0
    5.6604   -3.0083   -2.6653 H   0  0  0  0  0  0
  1  2  1  0  0  0
  1 32  1  0  0  0
  1 33  1  0  0  0
  1 34  1  0  0  0
  2  3  1  0  0  0
  3  4  2  0  0  0
  3 21  1  0  0  0
  4  5  1  0  0  0
  4 35  1  0  0  0
  5  6  2  0  0  0
  5 19  1  0  0  0
  6  7  1  0  0  0
  7  8  2  0  0  0
  7 36  1  0  0  0
  8  9  1  0  0  0
  9 10  1  0  0  0
  9 19  2  0  0  0
 10 11  1  0  0  0
 10 37  1  0  0  0
 11 12  2  0  0  0
 11 18  1  0  0  0
 12 13  1  0  0  0
 12 38  1  0  0  0
 13 14  2  0  0  0
 13 39  1  0  0  0
 14 15  1  0  0  0
 14 16  1  0  0  0
 16 17  1  0  0  0
 16 18  2  0  0  0
 18 40  1  0  0  0
 19 20  1  0  0  0
 20 21  2  0  0  0
 20 41  1  0  0  0
 21 22  1  0  0  0
 22 23  1  0  0  0
 23 24  1  0  0  0
 23 42  1  0  0  0
 23 43  1  0  0  0
 24 25  1  0  0  0
 24 44  1  0  0  0
 24 45  1  0  0  0
 25 26  1  0  0  0
 25 46  1  0  0  0
 25 47  1  0  0  0
 26 27  1  0  0  0
 26 31  1  0  0  0
 27 28  1  0  0  0
 27 48  1  0  0  0
 27 49  1  0  0  0
 28 29  1  0  0  0
 28 50  1  0  0  0
 28 51  1  0  0  0
 29 30  1  0  0  0
 30 31  1  0  0  0
 30 52  1  0  0  0
 30 53  1  0  0  0
 31 54  1  0  0  0
 31 55  1  0  0  0
M  END
> <chembl_id>
CHEMBL939

> <chembl_pref_name>
GEFITINIB

> <s_m_source_file>
sdf/inactives_sanitized.sdf

> <i_m_source_file_index>
224

> <i_lp_mmshare_version>
49012

> <i_m_ct_stereo_status>
1

> <i_f3d_flags>
0

> <s_epik_input>
W0NIMl0xW0NIMl1PW0NIMl1bQ0gyXU4xW0NIMl1bQ0gyXVtDSDJdT2MoYyhbY0hdMilPW0NIM10pW2NIXWMoYzIzKWMobltjSF1uMylbTkhdYzRbY0hdW2NIXWMoRiljKENsKVtjSF00

> <s_epik_cmdline>
J2VwaWtfcHl0aG9uJywgJy1waHQnLCAnMC41JywgJy1waCcsICc3LjUnLCAnLW50JywgJy1tYScsICcyMDAnLCAnLWltYWUnLCAnPGluZmlsZS5tYWU+JywgJy1vbWFlJywgJzxvdXRmaWxlLm1hZT4n

> <r_lp_tautomer_probability>
0.999978000241998

> <r_epik_Ionization_Penalty>
  0.1613

> <r_epik_Ionization_Penalty_Charging>
  0.0000

> <r_epik_Ionization_Penalty_Neutral>
  0.1613

> <r_epik_State_Penalty>
  0.1502

> <r_epik_Charging_Adjusted_Penalty>
0.150182127675862

> <i_epik_Tot_Q>
0

> <i_epik_Tot_abs_Q>
0

> <s_lp_Force_Field>
OPLS3e

> <r_lp_Energy>
40.769207

> <b_lp_Chiralities_Consistent>
1

> <s_lp_Variant>
sdf/inactives_sanitized.sdf:224-1

$$$$
sdf/inactives_sanitized.sdf:225
                    3D
 Schrodinger Suite 2020-1.
 69 73  0  0  1  0            999 V2000
   -9.3513   -1.3406    3.2093 C   0  0  0  0  0  0
   -8.2903   -2.3291    3.0260 N   0  0  1  0  0  0
   -8.3464   -3.0268    1.7358 C   0  0  0  0  0  0
   -7.9335   -2.1205    0.5509 C   0  0  0  0  0  0
   -6.5052   -1.5852    0.8076 N   0  3  0  0  0  0
   -6.0490   -0.6805   -0.3605 C   0  0  0  0  0  0
   -4.5961   -0.2377   -0.2711 C   0  0  0  0  0  0
   -4.2820    1.0449    0.1798 C   0  0  0  0  0  0
   -2.9523    1.4485    0.2585 C   0  0  0  0  0  0
   -1.9198    0.5761   -0.1117 C   0  0  0  0  0  0
   -2.2484   -0.7058   -0.5812 C   0  0  0  0  0  0
   -3.5785   -1.1083   -0.6624 C   0  0  0  0  0  0
   -0.4813    1.0350   -0.0158 C   0  0  0  0  0  0
   -0.2165    2.2376   -0.0640 O   0  0  0  0  0  0
    0.4300    0.0506    0.1652 N   0  0  0  0  0  0
    1.8329    0.1297    0.2508 C   0  0  0  0  0  0
    2.4877   -1.0100    0.7189 C   0  0  0  0  0  0
    3.8758   -1.0337    0.8265 C   0  0  0  0  0  0
    4.6380    0.0757    0.4497 C   0  0  0  0  0  0
    6.1556   -0.0010    0.5778 C   0  0  0  0  0  0
    3.9972    1.2251   -0.0487 C   0  0  0  0  0  0
    4.7671    2.3400   -0.4375 N   0  0  0  0  0  0
    4.5562    3.3280   -1.4122 C   0  0  0  0  0  0
    5.4694    4.3309   -1.4411 N   0  0  0  0  0  0
    5.2949    5.2873   -2.3891 C   0  0  0  0  0  0
    4.2333    5.2614   -3.2959 C   0  0  0  0  0  0
    3.3263    4.1939   -3.2020 C   0  0  0  0  0  0
    3.5031    3.2183   -2.2661 N   0  0  0  0  0  0
    2.1375    4.0476   -4.1028 C   0  0  0  0  0  0
    1.6284    5.1328   -4.8369 C   0  0  0  0  0  0
    0.5149    4.9730   -5.6636 C   0  0  0  0  0  0
   -0.0789    3.7152   -5.7413 C   0  0  0  0  0  0
    0.3780    2.6438   -5.0491 N   0  0  0  0  0  0
    1.4617    2.8223   -4.2517 C   0  0  0  0  0  0
    2.5964    1.2455   -0.1267 C   0  0  0  0  0  0
   -6.4651   -0.8390    2.1629 C   0  0  0  0  0  0
   -6.9431   -1.8029    3.2752 C   0  0  0  0  0  0
   -9.3052   -0.9144    4.2123 H   0  0  0  0  0  0
  -10.3304   -1.8079    3.0980 H   0  0  0  0  0  0
   -9.2857   -0.5221    2.4927 H   0  0  0  0  0  0
   -7.7014   -3.9059    1.7785 H   0  0  0  0  0  0
   -9.3561   -3.4073    1.5744 H   0  0  0  0  0  0
   -7.8853   -2.6873   -0.3797 H   0  0  0  0  0  0
   -8.5930   -1.2620    0.4128 H   0  0  0  0  0  0
   -6.2129   -1.2754   -1.2610 H   0  0  0  0  0  0
   -6.7393    0.1658   -0.3720 H   0  0  0  0  0  0
   -5.0639    1.7297    0.4749 H   0  0  0  0  0  0
   -2.7333    2.4449    0.6166 H   0  0  0  0  0  0
   -1.4818   -1.4003   -0.8942 H   0  0  0  0  0  0
   -3.8148   -2.0980   -1.0257 H   0  0  0  0  0  0
    0.0611   -0.8831    0.2672 H   0  0  0  0  0  0
    1.9246   -1.8855    1.0104 H   0  0  0  0  0  0
    4.3577   -1.9252    1.2013 H   0  0  0  0  0  0
    6.5168    0.7738    1.2547 H   0  0  0  0  0  0
    6.6247    0.1677   -0.3922 H   0  0  0  0  0  0
    6.4940   -0.9678    0.9526 H   0  0  0  0  0  0
    5.6162    2.4643    0.0940 H   0  0  0  0  0  0
    6.0243    6.0833   -2.4139 H   0  0  0  0  0  0
    4.1355    6.0406   -4.0362 H   0  0  0  0  0  0
    2.0788    6.1113   -4.7692 H   0  0  0  0  0  0
    0.1212    5.8059   -6.2273 H   0  0  0  0  0  0
   -0.9421    3.5509   -6.3692 H   0  0  0  0  0  0
    1.7868    1.9374   -3.7236 H   0  0  0  0  0  0
    2.1117    2.1353   -0.4900 H   0  0  0  0  0  0
   -5.4272   -0.5480    2.3257 H   0  0  0  0  0  0
   -7.0784    0.0587    2.0702 H   0  0  0  0  0  0
   -6.2471   -2.6381    3.3717 H   0  0  0  0  0  0
   -6.9269   -1.2906    4.2384 H   0  0  0  0  0  0
   -5.8820   -2.3784    0.8691 H   0  0  0  0  0  0
  1  2  1  0  0  0
  1 38  1  0  0  0
  1 39  1  0  0  0
  1 40  1  0  0  0
  2  3  1  0  0  0
  2 37  1  0  0  0
  3  4  1  0  0  0
  3 41  1  0  0  0
  3 42  1  0  0  0
  4  5  1  0  0  0
  4 43  1  0  0  0
  4 44  1  0  0  0
  5  6  1  0  0  0
  5 36  1  0  0  0
  5 69  1  0  0  0
  6  7  1  0  0  0
  6 45  1  0  0  0
  6 46  1  0  0  0
  7  8  2  0  0  0
  7 12  1  0  0  0
  8  9  1  0  0  0
  8 47  1  0  0  0
  9 10  2  0  0  0
  9 48  1  0  0  0
 10 11  1  0  0  0
 10 13  1  0  0  0
 11 12  2  0  0  0
 11 49  1  0  0  0
 12 50  1  0  0  0
 13 14  2  0  0  0
 13 15  1  0  0  0
 15 16  1  0  0  0
 15 51  1  0  0  0
 16 17  2  0  0  0
 16 35  1  0  0  0
 17 18  1  0  0  0
 17 52  1  0  0  0
 18 19  2  0  0  0
 18 53  1  0  0  0
 19 20  1  0  0  0
 19 21  1  0  0  0
 20 54  1  0  0  0
 20 55  1  0  0  0
 20 56  1  0  0  0
 21 22  1  0  0  0
 21 35  2  0  0  0
 22 23  1  0  0  0
 22 57  1  0  0  0
 23 24  2  0  0  0
 23 28  1  0  0  0
 24 25  1  0  0  0
 25 26  2  0  0  0
 25 58  1  0  0  0
 26 27  1  0  0  0
 26 59  1  0  0  0
 27 28  2  0  0  0
 27 29  1  0  0  0
 29 30  2  0  0  0
 29 34  1  0  0  0
 30 31  1  0  0  0
 30 60  1  0  0  0
 31 32  2  0  0  0
 31 61  1  0  0  0
 32 33  1  0  0  0
 32 62  1  0  0  0
 33 34  2  0  0  0
 34 63  1  0  0  0
 35 64  1  0  0  0
 36 37  1  0  0  0
 36 65  1  0  0  0
 36 66  1  0  0  0
 37 67  1  0  0  0
 37 68  1  0  0  0
M  CHG  1   5   1
M  END
> <chembl_id>
CHEMBL941

> <chembl_pref_name>
IMATINIB

> <s_m_source_file>
sdf/inactives_sanitized.sdf

> <i_m_source_file_index>
225

> <i_lp_mmshare_version>
49012

> <i_m_ct_stereo_status>
1

> <i_f3d_flags>
0

> <s_epik_input>
W0NIM11OMVtDSDJdW0NIMl1OKFtDSDJdW0NIMl0xKVtDSDJdYzJbY0hdW2NIXWMoW2NIXVtjSF0yKUMoPU8pW05IXWMzW2NIXVtjSF1jKFtDSDNdKWMoW2NIXTMpW05IXWM0bltjSF1bY0hdYyhuNCktYzVbY0hdW2NIXVtjSF1uW2NIXTU=

> <s_epik_cmdline>
J2VwaWtfcHl0aG9uJywgJy1waHQnLCAnMC41JywgJy1waCcsICc3LjUnLCAnLW50JywgJy1tYScsICcyMDAnLCAnLWltYWUnLCAnPGluZmlsZS5tYWU+JywgJy1vbWFlJywgJzxvdXRmaWxlLm1hZT4n

> <r_lp_tautomer_probability>
1

> <r_epik_Ionization_Penalty>
  0.0481

> <r_epik_Ionization_Penalty_Charging>
  0.0475

> <r_epik_Ionization_Penalty_Neutral>
  0.0006

> <r_epik_State_Penalty>
 -0.0000

> <r_epik_Charging_Adjusted_Penalty>
0.0475482833740569

> <i_epik_Tot_Q>
1

> <i_epik_Tot_abs_Q>
1

> <s_lp_Force_Field>
OPLS3e

> <r_lp_Energy>
76.255511

> <b_lp_Chiralities_Consistent>
1

> <s_lp_Variant>
sdf/inactives_sanitized.sdf:225-1

$$$$
sdf/inactives_sanitized.sdf:226
                    3D
 Schrodinger Suite 2020-1.
 38 40  0  0  1  0            999 V2000
    5.7989   -0.0596    0.9338 O   0  0  0  0  0  0
   -1.5714    1.7806   -1.0786 N   0  0  0  0  0  0
    0.4621    0.8249   -0.4463 N   0  0  0  0  0  0
    0.1414    3.1759   -0.1232 N   0  0  0  0  0  0
   -1.9774    4.1361   -0.7714 N   0  0  0  0  0  0
    4.3445   -2.1517    2.8295 N   0  3  0  0  0  0
   -2.3634    2.8896   -1.1715 C   0  0  0  0  0  0
   -0.3323    1.9759   -0.5568 C   0  0  0  0  0  0
    1.8111    0.6416   -0.0975 C   0  0  0  0  0  0
   -3.7438    2.7266   -1.7492 C   0  0  0  0  0  0
    3.5180   -0.8467    0.7974 C   0  0  0  0  0  0
    2.1901   -0.5945    0.4344 C   0  0  0  0  0  0
    4.4847    0.1514    0.6021 C   0  0  0  0  0  0
    2.7888    1.6255   -0.2930 C   0  0  0  0  0  0
    4.1156    1.3813    0.0576 C   0  0  0  0  0  0
   -0.7232    4.2130   -0.2587 C   0  0  0  0  0  0
   -4.6162    3.8233   -1.8688 C   0  0  0  0  0  0
   -4.2050    1.4725   -2.1882 C   0  0  0  0  0  0
    3.8908   -2.2093    1.3678 C   0  0  0  0  0  0
   -5.8933    3.6750   -2.4030 C   0  0  0  0  0  0
   -5.4810    1.3198   -2.7242 C   0  0  0  0  0  0
   -6.3213    2.4227   -2.8295 C   0  0  0  0  0  0
    6.3623    0.6892    0.7240 H   0  0  0  0  0  0
   -0.0132   -0.0209   -0.7258 H   0  0  0  0  0  0
    4.5907   -3.0760    3.1536 H   0  0  0  0  0  0
    3.6025   -1.7913    3.4122 H   0  0  0  0  0  0
    1.4444   -1.3648    0.5746 H   0  0  0  0  0  0
    2.5405    2.5801   -0.7313 H   0  0  0  0  0  0
    4.8562    2.1515   -0.1023 H   0  0  0  0  0  0
   -0.3840    5.1841    0.0707 H   0  0  0  0  0  0
   -4.3143    4.8095   -1.5478 H   0  0  0  0  0  0
   -3.5769    0.5963   -2.1198 H   0  0  0  0  0  0
    4.7288   -2.6579    0.8324 H   0  0  0  0  0  0
    3.0551   -2.9107    1.3772 H   0  0  0  0  0  0
   -6.5484    4.5297   -2.4859 H   0  0  0  0  0  0
   -5.8166    0.3485   -3.0568 H   0  0  0  0  0  0
   -7.3116    2.3059   -3.2444 H   0  0  0  0  0  0
    5.1537   -1.5529    2.9154 H   0  0  0  0  0  0
  1 13  1  0  0  0
  1 23  1  0  0  0
  2  7  2  0  0  0
  2  8  1  0  0  0
  3  8  1  0  0  0
  3  9  1  0  0  0
  3 24  1  0  0  0
  4  8  2  0  0  0
  4 16  1  0  0  0
  5  7  1  0  0  0
  5 16  2  0  0  0
  6 19  1  0  0  0
  6 25  1  0  0  0
  6 26  1  0  0  0
  6 38  1  0  0  0
  7 10  1  0  0  0
  9 12  1  0  0  0
  9 14  2  0  0  0
 10 17  2  0  0  0
 10 18  1  0  0  0
 11 12  2  0  0  0
 11 13  1  0  0  0
 11 19  1  0  0  0
 12 27  1  0  0  0
 13 15  2  0  0  0
 14 15  1  0  0  0
 14 28  1  0  0  0
 15 29  1  0  0  0
 16 30  1  0  0  0
 17 20  1  0  0  0
 17 31  1  0  0  0
 18 21  2  0  0  0
 18 32  1  0  0  0
 19 33  1  0  0  0
 19 34  1  0  0  0
 20 22  2  0  0  0
 20 35  1  0  0  0
 21 22  1  0  0  0
 21 36  1  0  0  0
 22 37  1  0  0  0
M  CHG  1   6   1
M  END
> <chembl_id>
CHEMBL1980246

> <chembl_pref_name>
None

> <s_m_source_file>
sdf/inactives_sanitized.sdf

> <i_m_source_file_index>
226

> <i_lp_mmshare_version>
49012

> <i_m_ct_stereo_status>
1

> <i_f3d_flags>
0

> <s_epik_input>
W2NIXTFbY0hdYyhbT0hdKWMoW0NIMl1bTkgyXSlbY0hdYzFbTkhdYyhuW2NIXW4yKW5jMi1jM1tjSF1bY0hdW2NIXVtjSF1bY0hdMw==

> <s_epik_cmdline>
J2VwaWtfcHl0aG9uJywgJy1waHQnLCAnMC41JywgJy1waCcsICc3LjUnLCAnLW50JywgJy1tYScsICcyMDAnLCAnLWltYWUnLCAnPGluZmlsZS5tYWU+JywgJy1vbWFlJywgJzxvdXRmaWxlLm1hZT4n

> <r_epik_Ionization_Penalty>
  0.0788

> <r_epik_Ionization_Penalty_Charging>
  0.0726

> <r_epik_Ionization_Penalty_Neutral>
  0.0062

> <r_epik_State_Penalty>
  0.0638

> <r_epik_Charging_Adjusted_Penalty>
0.136439238547227

> <i_epik_Tot_Q>
1

> <i_epik_Tot_abs_Q>
1

> <s_lp_Force_Field>
OPLS3e

> <r_lp_Energy>
31.867524

> <b_lp_Chiralities_Consistent>
1

> <s_lp_Variant>
sdf/inactives_sanitized.sdf:226-1

$$$$
sdf/inactives_sanitized.sdf:227
                    3D
 Schrodinger Suite 2020-1.
 64 68  0  0  1  0            999 V2000
   -0.1601    8.5282    3.1528 C   0  0  0  0  0  0
    0.2405    9.4219    4.1467 C   0  0  0  0  0  0
   -0.0841    9.3101    5.4618 N   0  0  0  0  0  0
   -0.9513    7.4302    3.4962 C   0  0  0  0  0  0
   -1.3178    7.2668    4.8465 C   0  0  0  0  0  0
   -0.8420    8.2507    5.7635 C   0  0  0  0  0  0
   -1.3054    7.9096    7.0125 N   0  0  0  0  0  0
   -2.0490    6.7600    6.9192 C   0  0  0  0  0  0
   -2.0942    6.3128    5.6053 C   0  0  0  0  0  0
   -2.7937    5.1172    5.1326 C   0  0  0  0  0  0
   -2.7199    4.7511    3.8644 N   0  0  0  0  0  0
   -3.3989    3.6553    3.6069 C   0  0  0  0  0  0
   -4.2199    2.9741    4.9674 S   0  0  0  0  0  0
   -3.5755    4.2728    5.9263 C   0  0  0  0  0  0
   -3.5212    3.0010    2.3893 N   0  0  0  0  0  0
   -2.8426    3.2862    1.2556 C   0  0  0  0  0  0
   -3.1301    2.3732    0.0556 C   0  0  0  0  0  0
   -2.0150    4.1919    1.1352 O   0  0  0  0  0  0
   -2.2247    1.1438    0.0477 C   0  0  0  0  0  0
   -2.7725   -0.1308    0.2198 C   0  0  0  0  0  0
   -1.9489   -1.2550    0.2194 C   0  0  0  0  0  0
   -0.5722   -1.1111    0.0545 C   0  0  0  0  0  0
   -0.0000    0.1522   -0.1105 C   0  0  0  0  0  0
   -0.8412    1.2778   -0.1249 C   0  0  0  0  0  0
    1.3737    0.2007   -0.2458 O   0  0  0  0  0  0
    2.0271    1.4676   -0.2865 C   0  0  0  0  0  0
    3.5480    1.2630   -0.1962 C   0  0  0  0  0  0
    3.9930    0.5902    1.1203 C   0  0  0  0  0  0
    5.5124    0.3181    1.2307 C   0  0  0  0  0  0
    5.8244   -0.5577    2.4634 C   0  0  0  0  0  0
    7.3146   -0.9384    2.5192 C   0  0  0  0  0  0
    8.1575    0.3519    2.5426 N   0  3  0  0  0  0
    7.8571    1.3059    1.3694 C   0  0  0  0  0  0
    6.3483    1.6128    1.3457 C   0  0  0  0  0  0
    0.1385    8.6843    2.1267 H   0  0  0  0  0  0
    0.8523   10.2736    3.8875 H   0  0  0  0  0  0
   -1.2698    6.7294    2.7384 H   0  0  0  0  0  0
   -1.1500    8.3938    7.8849 H   0  0  0  0  0  0
   -2.4917    6.3472    7.8139 H   0  0  0  0  0  0
   -3.7941    4.3470    6.9811 H   0  0  0  0  0  0
   -4.1406    2.2040    2.3754 H   0  0  0  0  0  0
   -4.1797    2.0730    0.0679 H   0  0  0  0  0  0
   -2.9874    2.9306   -0.8716 H   0  0  0  0  0  0
   -3.8370   -0.2550    0.3553 H   0  0  0  0  0  0
   -2.3764   -2.2378    0.3519 H   0  0  0  0  0  0
    0.0578   -1.9886    0.0631 H   0  0  0  0  0  0
   -0.4341    2.2683   -0.2618 H   0  0  0  0  0  0
    1.7755    1.9809   -1.2162 H   0  0  0  0  0  0
    1.7032    2.1022    0.5412 H   0  0  0  0  0  0
    3.8817    0.6674   -1.0472 H   0  0  0  0  0  0
    4.0285    2.2355   -0.3000 H   0  0  0  0  0  0
    3.6644    1.1936    1.9682 H   0  0  0  0  0  0
    3.4637   -0.3597    1.2117 H   0  0  0  0  0  0
    5.8343   -0.2275    0.3410 H   0  0  0  0  0  0
    5.5118   -0.0565    3.3814 H   0  0  0  0  0  0
    5.2234   -1.4676    2.4295 H   0  0  0  0  0  0
    7.5760   -1.4880    3.4240 H   0  0  0  0  0  0
    7.6409   -1.5031    1.6445 H   0  0  0  0  0  0
    7.9810    0.8387    3.4101 H   0  0  0  0  0  0
    8.4655    2.1946    1.5392 H   0  0  0  0  0  0
    8.2003    0.7985    0.4667 H   0  0  0  0  0  0
    6.1344    2.2777    0.5093 H   0  0  0  0  0  0
    6.0523    2.1811    2.2292 H   0  0  0  0  0  0
    9.1387    0.1109    2.5361 H   0  0  0  0  0  0
  1  2  2  0  0  0
  1  4  1  0  0  0
  1 35  1  0  0  0
  2  3  1  0  0  0
  2 36  1  0  0  0
  3  6  2  0  0  0
  4  5  2  0  0  0
  4 37  1  0  0  0
  5  6  1  0  0  0
  5  9  1  0  0  0
  6  7  1  0  0  0
  7  8  1  0  0  0
  7 38  1  0  0  0
  8  9  2  0  0  0
  8 39  1  0  0  0
  9 10  1  0  0  0
 10 11  1  0  0  0
 10 14  2  0  0  0
 11 12  2  0  0  0
 12 13  1  0  0  0
 12 15  1  0  0  0
 13 14  1  0  0  0
 14 40  1  0  0  0
 15 16  1  0  0  0
 15 41  1  0  0  0
 16 17  1  0  0  0
 16 18  2  0  0  0
 17 19  1  0  0  0
 17 42  1  0  0  0
 17 43  1  0  0  0
 19 20  2  0  0  0
 19 24  1  0  0  0
 20 21  1  0  0  0
 20 44  1  0  0  0
 21 22  2  0  0  0
 21 45  1  0  0  0
 22 23  1  0  0  0
 22 46  1  0  0  0
 23 24  2  0  0  0
 23 25  1  0  0  0
 24 47  1  0  0  0
 25 26  1  0  0  0
 26 27  1  0  0  0
 26 48  1  0  0  0
 26 49  1  0  0  0
 27 28  1  0  0  0
 27 50  1  0  0  0
 27 51  1  0  0  0
 28 29  1  0  0  0
 28 52  1  0  0  0
 28 53  1  0  0  0
 29 30  1  0  0  0
 29 34  1  0  0  0
 29 54  1  0  0  0
 30 31  1  0  0  0
 30 55  1  0  0  0
 30 56  1  0  0  0
 31 32  1  0  0  0
 31 57  1  0  0  0
 31 58  1  0  0  0
 32 33  1  0  0  0
 32 59  1  0  0  0
 32 64  1  0  0  0
 33 34  1  0  0  0
 33 60  1  0  0  0
 33 61  1  0  0  0
 34 62  1  0  0  0
 34 63  1  0  0  0
M  CHG  1  32   1
M  END
> <chembl_id>
CHEMBL4245242

> <chembl_pref_name>
None

> <s_m_source_file>
sdf/inactives_sanitized.sdf

> <i_m_source_file_index>
227

> <i_lp_mmshare_version>
49012

> <i_m_ct_stereo_status>
1

> <i_f3d_flags>
0

> <s_epik_input>
W2NIXTFbY0hdW2NIXW5jKGMxMilbbkhdW2NIXWMyLWMzbmMoc1tjSF0zKVtOSF1DKD1PKVtDSDJdYzRbY0hdW2NIXVtjSF1jKFtjSF00KU9bQ0gyXVtDSDJdW0NIMl1bQ0hdNVtDSDJdW0NIMl1bTkhdW0NIMl1bQ0gyXTU=

> <s_epik_cmdline>
J2VwaWtfcHl0aG9uJywgJy1waHQnLCAnMC41JywgJy1waCcsICc3LjUnLCAnLW50JywgJy1tYScsICcyMDAnLCAnLWltYWUnLCAnPGluZmlsZS5tYWU+JywgJy1vbWFlJywgJzxvdXRmaWxlLm1hZT4n

> <r_lp_tautomer_probability>
1

> <r_epik_Ionization_Penalty>
  0.0033

> <r_epik_Ionization_Penalty_Charging>
  0.0007

> <r_epik_Ionization_Penalty_Neutral>
  0.0026

> <r_epik_State_Penalty>
 -0.0000

> <r_epik_Charging_Adjusted_Penalty>
0.000694788497855196

> <i_epik_Tot_Q>
1

> <i_epik_Tot_abs_Q>
1

> <s_lp_Force_Field>
OPLS3e

> <r_lp_Energy>
53.495667

> <b_lp_Chiralities_Consistent>
1

> <s_lp_Variant>
sdf/inactives_sanitized.sdf:227-1

$$$$
sdf/inactives_sanitized.sdf:228
                    3D
 Schrodinger Suite 2020-1.
 35 37  0  0  1  0            999 V2000
   -6.0382   -2.0058    1.8449 Cl  0  0  0  0  0  0
    4.2801    3.1992    0.0512 F   0  0  0  0  0  0
    4.0019    2.6834   -2.0363 F   0  0  0  0  0  0
    5.7109    1.9290   -0.9516 F   0  0  0  0  0  0
   -0.2648    2.5834   -0.2582 O   0  0  0  0  0  0
    2.2367    1.2357   -0.3384 N   0  0  0  0  0  0
   -2.0177    1.1734    0.1944 N   0  0  0  0  0  0
   -5.5286    3.5511   -0.0653 N   0  0  0  0  0  0
    0.0296    0.3504    0.1436 N   0  0  0  0  0  0
   -4.4312    1.4337    0.4748 C   0  0  0  0  0  0
   -3.1638    1.9966    0.1059 C   0  0  0  0  0  0
   -5.5931    2.2645    0.3710 C   0  0  0  0  0  0
    3.5761    1.0186   -0.4401 C   0  0  0  0  0  0
    4.4139    2.2272   -0.8524 C   0  0  0  0  0  0
    1.4246    0.2011    0.0257 C   0  0  0  0  0  0
   -4.6022    0.0971    0.9406 C   0  0  0  0  0  0
   -0.7153    1.4671    0.0017 C   0  0  0  0  0  0
   -3.1386    3.3250   -0.3494 C   0  0  0  0  0  0
   -6.8615    1.7463    0.7287 C   0  0  0  0  0  0
   -5.8636   -0.3826    1.2843 C   0  0  0  0  0  0
    4.1479   -0.2333   -0.1834 C   0  0  0  0  0  0
   -4.3218    4.0505   -0.4141 C   0  0  0  0  0  0
    1.9368   -1.0729    0.2933 C   0  0  0  0  0  0
   -6.9828    0.4356    1.1793 C   0  0  0  0  0  0
    3.3120   -1.2870    0.1874 C   0  0  0  0  0  0
   -2.2232    0.2131    0.4269 H   0  0  0  0  0  0
   -0.4651   -0.4967    0.3812 H   0  0  0  0  0  0
   -3.7468   -0.5561    1.0311 H   0  0  0  0  0  0
   -2.2337    3.8181   -0.6642 H   0  0  0  0  0  0
   -7.7384    2.3736    0.6496 H   0  0  0  0  0  0
    5.2129   -0.3940   -0.2666 H   0  0  0  0  0  0
   -4.3137    5.0732   -0.7616 H   0  0  0  0  0  0
    1.2869   -1.8879    0.5790 H   0  0  0  0  0  0
   -7.9568    0.0534    1.4483 H   0  0  0  0  0  0
    3.7268   -2.2633    0.3907 H   0  0  0  0  0  0
  1 20  1  0  0  0
  2 14  1  0  0  0
  3 14  1  0  0  0
  4 14  1  0  0  0
  5 17  2  0  0  0
  6 13  2  0  0  0
  6 15  1  0  0  0
  7 11  1  0  0  0
  7 17  1  0  0  0
  7 26  1  0  0  0
  8 12  2  0  0  0
  8 22  1  0  0  0
  9 15  1  0  0  0
  9 17  1  0  0  0
  9 27  1  0  0  0
 10 11  2  0  0  0
 10 12  1  0  0  0
 10 16  1  0  0  0
 11 18  1  0  0  0
 12 19  1  0  0  0
 13 14  1  0  0  0
 13 21  1  0  0  0
 15 23  2  0  0  0
 16 20  2  0  0  0
 16 28  1  0  0  0
 18 22  2  0  0  0
 18 29  1  0  0  0
 19 24  2  0  0  0
 19 30  1  0  0  0
 20 24  1  0  0  0
 21 25  2  0  0  0
 21 31  1  0  0  0
 22 32  1  0  0  0
 23 25  1  0  0  0
 23 33  1  0  0  0
 24 34  1  0  0  0
 25 35  1  0  0  0
M  END
> <chembl_id>
CHEMBL1967513

> <chembl_pref_name>
None

> <s_m_source_file>
sdf/inactives_sanitized.sdf

> <i_m_source_file_index>
228

> <i_lp_mmshare_version>
49012

> <i_m_ct_stereo_status>
1

> <i_f3d_flags>
0

> <s_epik_input>
Q2xjKFtjSF0xKVtjSF1bY0hdYyhjMTIpbltjSF1bY0hdYzJbTkhdQyg9TylbTkhdYyhuYzNDKEYpKEYpRilbY0hdW2NIXVtjSF0z

> <s_epik_cmdline>
J2VwaWtfcHl0aG9uJywgJy1waHQnLCAnMC41JywgJy1waCcsICc3LjUnLCAnLW50JywgJy1tYScsICcyMDAnLCAnLWltYWUnLCAnPGluZmlsZS5tYWU+JywgJy1vbWFlJywgJzxvdXRmaWxlLm1hZT4n

> <r_lp_tautomer_probability>
1

> <r_epik_Ionization_Penalty>
  0.0024

> <r_epik_Ionization_Penalty_Charging>
  0.0000

> <r_epik_Ionization_Penalty_Neutral>
  0.0024

> <r_epik_State_Penalty>
 -0.0000

> <r_epik_Charging_Adjusted_Penalty>
0

> <i_epik_Tot_Q>
0

> <i_epik_Tot_abs_Q>
0

> <s_lp_Force_Field>
OPLS3e

> <r_lp_Energy>
46.389012

> <b_lp_Chiralities_Consistent>
1

> <s_lp_Variant>
sdf/inactives_sanitized.sdf:228-1

$$$$
sdf/inactives_sanitized.sdf:229
                    3D
 Schrodinger Suite 2020-1.
 40 41  0  0  1  0            999 V2000
   -4.7068   -0.2690    0.3335 O   0  0  0  0  0  0
   -4.7781   -2.5484    0.5570 N   0  0  0  0  0  0
   -8.8511   -3.6076    0.8750 N   0  0  0  0  0  0
    1.9958    0.6741   -1.3790 N   0  3  0  0  0  0
   -2.6040   -1.4365    0.3107 C   0  0  2  0  0  0
   -4.1454   -1.3644    0.3994 C   0  0  0  0  0  0
    0.0365   -0.0304    0.0459 C   0  0  2  0  0  0
   -6.1546   -2.8288    0.6526 C   0  0  0  0  0  0
   -2.0015   -0.6213    1.4865 C   0  0  0  0  0  0
   -2.1558   -0.8124   -1.0387 C   0  0  0  0  0  0
   -0.4606   -0.6384    1.3841 C   0  0  0  0  0  0
   -0.6139   -0.8246   -1.1211 C   0  0  0  0  0  0
    1.5887    0.0199   -0.0515 C   0  0  2  0  0  0
   -6.4971   -4.1609    0.9146 C   0  0  0  0  0  0
   -7.1897   -1.8878    0.4977 C   0  0  0  0  0  0
   -7.8455   -4.5062    1.0193 C   0  0  0  0  0  0
   -8.5123   -2.3196    0.6171 C   0  0  0  0  0  0
    2.2978    0.7960    1.0745 C   0  0  0  0  0  0
   -4.1862   -3.3626    0.6337 H   0  0  0  0  0  0
    1.6689    1.6294   -1.4102 H   0  0  0  0  0  0
    1.5929    0.1671   -2.1542 H   0  0  0  0  0  0
   -2.3121   -2.4877    0.3727 H   0  0  0  0  0  0
   -0.3471    0.9911   -0.0051 H   0  0  0  0  0  0
   -2.2954    0.4303    1.4508 H   0  0  0  0  0  0
   -2.2525   -1.0700    2.4494 H   0  0  0  0  0  0
   -2.5160   -1.3998   -1.8853 H   0  0  0  0  0  0
   -2.4546    0.2347   -1.1263 H   0  0  0  0  0  0
   -0.0785   -1.6546    1.4971 H   0  0  0  0  0  0
   -0.0441   -0.0900    2.2288 H   0  0  0  0  0  0
   -0.3041   -0.4150   -2.0829 H   0  0  0  0  0  0
   -0.2401   -1.8503   -1.1261 H   0  0  0  0  0  0
    2.0057   -0.9847   -0.1411 H   0  0  0  0  0  0
   -5.7373   -4.9195    1.0389 H   0  0  0  0  0  0
   -7.0103   -0.8468    0.2842 H   0  0  0  0  0  0
   -8.1377   -5.5259    1.2227 H   0  0  0  0  0  0
   -9.3290   -1.6224    0.5022 H   0  0  0  0  0  0
    2.1881    0.2944    2.0359 H   0  0  0  0  0  0
    1.8998    1.8063    1.1793 H   0  0  0  0  0  0
    3.3697    0.8794    0.8888 H   0  0  0  0  0  0
    3.0012    0.6707   -1.4751 H   0  0  0  0  0  0
  1  6  2  0  0  0
  2  6  1  0  0  0
  2  8  1  0  0  0
  2 19  1  0  0  0
  3 16  2  0  0  0
  3 17  1  0  0  0
  4 13  1  0  0  0
  4 20  1  0  0  0
  4 21  1  0  0  0
  4 40  1  0  0  0
  5  6  1  0  0  0
  5  9  1  0  0  0
  5 10  1  0  0  0
  5 22  1  0  0  0
  7 11  1  0  0  0
  7 12  1  0  0  0
  7 13  1  0  0  0
  7 23  1  0  0  0
  8 14  2  0  0  0
  8 15  1  0  0  0
  9 11  1  0  0  0
  9 24  1  0  0  0
  9 25  1  0  0  0
 10 12  1  0  0  0
 10 26  1  0  0  0
 10 27  1  0  0  0
 11 28  1  0  0  0
 11 29  1  0  0  0
 12 30  1  0  0  0
 12 31  1  0  0  0
 13 18  1  0  0  0
 13 32  1  0  0  0
 14 16  1  0  0  0
 14 33  1  0  0  0
 15 17  2  0  0  0
 15 34  1  0  0  0
 16 35  1  0  0  0
 17 36  1  0  0  0
 18 37  1  0  0  0
 18 38  1  0  0  0
 18 39  1  0  0  0
M  CHG  1   4   1
M  END
> <chembl_id>
CHEMBL1994526

> <chembl_pref_name>
None

> <s_m_source_file>
sdf/inactives_sanitized.sdf

> <i_m_source_file_index>
229

> <i_lp_mmshare_version>
49012

> <i_m_ct_stereo_status>
1

> <i_f3d_flags>
0

> <s_epik_input>
W05IMl1bQ0BASF0oW0NIM10pW0NAQEhdKFtDSDJdW0NIMl0xKVtDSDJdW0NIMl1bQ0BIXTFDKD1PKVtOSF1jMltjSF1bY0hdbltjSF1bY0hdMg==

> <s_epik_cmdline>
J2VwaWtfcHl0aG9uJywgJy1waHQnLCAnMC41JywgJy1waCcsICc3LjUnLCAnLW50JywgJy1tYScsICcyMDAnLCAnLWltYWUnLCAnPGluZmlsZS5tYWU+JywgJy1vbWFlJywgJzxvdXRmaWxlLm1hZT4n

> <r_lp_tautomer_probability>
1

> <r_epik_Ionization_Penalty>
  0.0022

> <r_epik_Ionization_Penalty_Charging>
  0.0011

> <r_epik_Ionization_Penalty_Neutral>
  0.0011

> <r_epik_State_Penalty>
 -0.0000

> <r_epik_Charging_Adjusted_Penalty>
0.00111557697539295

> <i_epik_Tot_Q>
1

> <i_epik_Tot_abs_Q>
1

> <s_lp_Force_Field>
OPLS3e

> <r_lp_Energy>
35.908111

> <b_lp_Chiralities_Consistent>
1

> <s_lp_Variant>
sdf/inactives_sanitized.sdf:229-1

$$$$
sdf/inactives_sanitized.sdf:230
                    3D
 Schrodinger Suite 2020-1.
 56 59  0  0  1  0            999 V2000
   -0.7277    1.9487   -0.1553 S   0  0  0  0  0  0
   -0.5632    2.7149    1.0862 O   0  0  0  0  0  0
   -0.6497    2.6859   -1.4223 O   0  0  0  0  0  0
    6.4234   -6.5465    0.5305 O   0  5  0  0  0  0
    4.6137   -7.2327   -0.4191 O   0  0  0  0  0  0
    0.0497    0.5854   -0.1694 N   0  5  0  0  0  0
    1.9488   -0.7355   -0.1054 N   0  0  0  0  0  0
    2.1961    1.6342   -0.0647 N   0  0  0  0  0  0
    5.3153   -6.3377    0.0442 N   0  3  0  0  0  0
    6.6084    6.4047    0.1822 N   0  0  0  0  0  0
   -6.2852   -0.2263    0.0704 N   0  0  0  0  0  0
    1.4188    0.5145   -0.1112 C   0  0  0  0  0  0
    3.3011   -0.8858   -0.0410 C   0  0  0  0  0  0
    3.5515    1.5098   -0.0192 C   0  0  0  0  0  0
    4.1398    0.2369   -0.0033 C   0  0  0  0  0  0
   -2.4039    1.3074   -0.0884 C   0  0  0  0  0  0
    3.8215   -2.2927   -0.0285 C   0  0  0  0  0  0
    4.3455    2.7858    0.0267 C   0  0  0  0  0  0
    5.0894   -2.5854    0.4923 C   0  0  0  0  0  0
    3.0543   -3.3568   -0.5266 C   0  0  0  0  0  0
   -3.1045    1.0586   -1.2721 C   0  0  0  0  0  0
   -2.9958    1.0340    1.1478 C   0  0  0  0  0  0
    5.7246    2.7925   -0.2217 C   0  0  0  0  0  0
    3.7345    4.0154    0.3153 C   0  0  0  0  0  0
    4.8025   -4.9460    0.0162 C   0  0  0  0  0  0
    5.8522    5.2002    0.1222 C   0  0  0  0  0  0
    5.5742   -3.8899    0.5150 C   0  0  0  0  0  0
    3.5353   -4.6625   -0.5067 C   0  0  0  0  0  0
    6.4625    3.9719   -0.1746 C   0  0  0  0  0  0
    4.4701    5.1959    0.3643 C   0  0  0  0  0  0
   -4.3991    0.5482   -1.2186 C   0  0  0  0  0  0
   -4.2904    0.5239    1.2004 C   0  0  0  0  0  0
   -4.9889    0.2838    0.0173 C   0  0  0  0  0  0
    8.0085    6.4243   -0.2411 C   0  0  0  0  0  0
    5.9343    7.6952    0.3261 C   0  0  0  0  0  0
   -6.7081   -0.4136    0.9678 H   0  0  0  0  0  0
   -6.7871   -0.3971   -0.7889 H   0  0  0  0  0  0
    5.2103    0.1183    0.0386 H   0  0  0  0  0  0
    5.7134   -1.8058    0.9023 H   0  0  0  0  0  0
    2.0718   -3.1801   -0.9400 H   0  0  0  0  0  0
   -2.6492    1.2557   -2.2315 H   0  0  0  0  0  0
   -2.4555    1.2124    2.0660 H   0  0  0  0  0  0
    6.2520    1.8844   -0.4680 H   0  0  0  0  0  0
    2.6741    4.0710    0.5150 H   0  0  0  0  0  0
    6.5555   -4.0711    0.9288 H   0  0  0  0  0  0
    2.9112   -5.4513   -0.9007 H   0  0  0  0  0  0
    7.5199    3.9027   -0.3784 H   0  0  0  0  0  0
    3.9348    6.1038    0.5956 H   0  0  0  0  0  0
   -4.9360    0.3592   -2.1370 H   0  0  0  0  0  0
   -4.7427    0.3161    2.1594 H   0  0  0  0  0  0
    8.5917    5.6752    0.2950 H   0  0  0  0  0  0
    8.4755    7.3947   -0.0684 H   0  0  0  0  0  0
    8.0811    6.2019   -1.3064 H   0  0  0  0  0  0
    5.2914    7.7053    1.2066 H   0  0  0  0  0  0
    5.3072    7.8898   -0.5448 H   0  0  0  0  0  0
    6.6415    8.5199    0.4209 H   0  0  0  0  0  0
  1  2  2  0  0  0
  1  3  2  0  0  0
  1  6  1  0  0  0
  1 16  1  0  0  0
  4  9  1  0  0  0
  5  9  2  0  0  0
  6 12  1  0  0  0
  7 12  2  0  0  0
  7 13  1  0  0  0
  8 12  1  0  0  0
  8 14  2  0  0  0
  9 25  1  0  0  0
 10 26  1  0  0  0
 10 34  1  0  0  0
 10 35  1  0  0  0
 11 33  1  0  0  0
 11 36  1  0  0  0
 11 37  1  0  0  0
 13 15  2  0  0  0
 13 17  1  0  0  0
 14 15  1  0  0  0
 14 18  1  0  0  0
 15 38  1  0  0  0
 16 21  2  0  0  0
 16 22  1  0  0  0
 17 19  2  0  0  0
 17 20  1  0  0  0
 18 23  2  0  0  0
 18 24  1  0  0  0
 19 27  1  0  0  0
 19 39  1  0  0  0
 20 28  2  0  0  0
 20 40  1  0  0  0
 21 31  1  0  0  0
 21 41  1  0  0  0
 22 32  2  0  0  0
 22 42  1  0  0  0
 23 29  1  0  0  0
 23 43  1  0  0  0
 24 30  2  0  0  0
 24 44  1  0  0  0
 25 27  2  0  0  0
 25 28  1  0  0  0
 26 29  2  0  0  0
 26 30  1  0  0  0
 27 45  1  0  0  0
 28 46  1  0  0  0
 29 47  1  0  0  0
 30 48  1  0  0  0
 31 33  2  0  0  0
 31 49  1  0  0  0
 32 33  1  0  0  0
 32 50  1  0  0  0
 34 51  1  0  0  0
 34 52  1  0  0  0
 34 53  1  0  0  0
 35 54  1  0  0  0
 35 55  1  0  0  0
 35 56  1  0  0  0
M  CHG  3   4  -1   6  -1   9   1
M  END
> <chembl_id>
CHEMBL1980167

> <chembl_pref_name>
None

> <s_m_source_file>
sdf/inactives_sanitized.sdf

> <i_m_source_file_index>
230

> <i_lp_mmshare_version>
49012

> <i_m_ct_stereo_status>
1

> <i_f3d_flags>
0

> <s_epik_input>
W2NIXTFbY0hdYyhbTkgyXSlbY0hdW2NIXWMxUyg9TykoPU8pW05IXWMybmMoLWMzW2NIXVtjSF1jKFtOK10oW08tXSk9TylbY0hdW2NIXTMpW2NIXWMobjIpLWM0W2NIXVtjSF1jKE4oW0NIM10pW0NIM10pW2NIXVtjSF00

> <s_epik_cmdline>
J2VwaWtfcHl0aG9uJywgJy1waHQnLCAnMC41JywgJy1waCcsICc3LjUnLCAnLW50JywgJy1tYScsICcyMDAnLCAnLWltYWUnLCAnPGluZmlsZS5tYWU+JywgJy1vbWFlJywgJzxvdXRmaWxlLm1hZT4n

> <r_epik_Ionization_Penalty>
  0.0185

> <r_epik_Ionization_Penalty_Charging>
  0.0174

> <r_epik_Ionization_Penalty_Neutral>
  0.0011

> <r_epik_State_Penalty>
  0.0138

> <r_epik_Charging_Adjusted_Penalty>
0.0312544090043833

> <i_epik_Tot_Q>
-1

> <i_epik_Tot_abs_Q>
3

> <s_lp_Force_Field>
OPLS3e

> <r_lp_Energy>
63.720163

> <b_lp_Chiralities_Consistent>
1

> <s_lp_Variant>
sdf/inactives_sanitized.sdf:230-1

$$$$
sdf/inactives_sanitized.sdf:231
                    3D
 Schrodinger Suite 2020-1.
 28 30  0  0  1  0            999 V2000
    2.2506   -1.0571    0.0000 N   0  0  0  0  0  0
    2.3106    1.1764   -0.0000 N   0  3  0  0  0  0
    0.1107    0.1801    0.0001 N   0  0  0  0  0  0
    1.9209   -2.4024    0.0000 C   0  0  0  0  0  0
    3.6255   -0.6327   -0.0000 C   0  0  0  0  0  0
    1.4615    0.0933    0.0000 C   0  0  0  0  0  0
    0.4948   -2.8069    0.0000 C   0  0  0  0  0  0
    3.6273    0.7884   -0.0000 C   0  0  0  0  0  0
    2.9362   -3.3556    0.0000 C   0  0  0  0  0  0
    4.6246   -1.6223   -0.0000 C   0  0  0  0  0  0
    4.2688   -2.9680   -0.0000 C   0  0  0  0  0  0
   -0.1811   -2.9976    1.2090 C   0  0  0  0  0  0
   -0.1811   -2.9976   -1.2090 C   0  0  0  0  0  0
   -1.5225   -3.3712    1.2100 C   0  0  0  0  0  0
   -1.5224   -3.3712   -1.2100 C   0  0  0  0  0  0
   -2.1873   -3.5562   -0.0001 C   0  0  0  0  0  0
   -0.3497    1.0790    0.0001 H   0  0  0  0  0  0
   -0.4546   -0.6578   -0.0001 H   0  0  0  0  0  0
    4.4108    1.5320   -0.0001 H   0  0  0  0  0  0
    2.6904   -4.4081    0.0001 H   0  0  0  0  0  0
    5.6688   -1.3455   -0.0001 H   0  0  0  0  0  0
    5.0408   -3.7238   -0.0000 H   0  0  0  0  0  0
    0.3328   -2.8546    2.1489 H   0  0  0  0  0  0
    0.3329   -2.8546   -2.1489 H   0  0  0  0  0  0
   -2.0442   -3.5182    2.1442 H   0  0  0  0  0  0
   -2.0441   -3.5182   -2.1443 H   0  0  0  0  0  0
   -3.2275   -3.8477   -0.0001 H   0  0  0  0  0  0
    2.0013    2.1384   -0.0000 H   0  0  0  0  0  0
  1  4  1  0  0  0
  1  5  1  0  0  0
  1  6  1  0  0  0
  2  6  2  0  0  0
  2  8  1  0  0  0
  2 28  1  0  0  0
  3  6  1  0  0  0
  3 17  1  0  0  0
  3 18  1  0  0  0
  4  7  1  0  0  0
  4  9  2  0  0  0
  5  8  2  0  0  0
  5 10  1  0  0  0
  7 12  2  0  0  0
  7 13  1  0  0  0
  8 19  1  0  0  0
  9 11  1  0  0  0
  9 20  1  0  0  0
 10 11  2  0  0  0
 10 21  1  0  0  0
 11 22  1  0  0  0
 12 14  1  0  0  0
 12 23  1  0  0  0
 13 15  2  0  0  0
 13 24  1  0  0  0
 14 16  2  0  0  0
 14 25  1  0  0  0
 15 16  1  0  0  0
 15 26  1  0  0  0
 16 27  1  0  0  0
M  CHG  1   2   1
M  END
> <chembl_id>
CHEMBL1997119

> <chembl_pref_name>
None

> <s_m_source_file>
sdf/inactives_sanitized.sdf

> <i_m_source_file_index>
231

> <i_lp_mmshare_version>
49012

> <i_m_ct_stereo_status>
1

> <i_f3d_flags>
0

> <s_epik_input>
W05IMl1jMW5bY0hdYyhuMTIpW2NIXVtjSF1bY0hdYzItYzNbY0hdW2NIXVtjSF1bY0hdW2NIXTM=

> <s_epik_cmdline>
J2VwaWtfcHl0aG9uJywgJy1waHQnLCAnMC41JywgJy1waCcsICc3LjUnLCAnLW50JywgJy1tYScsICcyMDAnLCAnLWltYWUnLCAnPGluZmlsZS5tYWU+JywgJy1vbWFlJywgJzxvdXRmaWxlLm1hZT4n

> <r_epik_Ionization_Penalty>
  0.0440

> <r_epik_Ionization_Penalty_Charging>
  0.0000

> <r_epik_Ionization_Penalty_Neutral>
  0.0440

> <r_epik_State_Penalty>
  0.0372

> <r_epik_Charging_Adjusted_Penalty>
0.0371562512695268

> <i_epik_Tot_Q>
1

> <i_epik_Tot_abs_Q>
1

> <s_lp_Force_Field>
OPLS3e

> <r_lp_Energy>
35.599027

> <b_lp_Chiralities_Consistent>
1

> <s_lp_Variant>
sdf/inactives_sanitized.sdf:231-1

$$$$
sdf/inactives_sanitized.sdf:232
                    3D
 Schrodinger Suite 2020-1.
 85 89  0  0  1  0            999 V2000
   -0.7903   -3.2445   -0.2574 C   0  0  0  0  0  0
   -2.1674   -3.0849   -0.0434 C   0  0  0  0  0  0
   -2.7246   -1.7982    0.0079 C   0  0  0  0  0  0
    0.0348   -2.1183   -0.4205 C   0  0  0  0  0  0
   -0.4932   -0.8010   -0.3602 C   0  0  0  0  0  0
   -1.8978   -0.6705   -0.1542 C   0  0  0  0  0  0
   -2.4193    0.6032   -0.1258 N   0  3  0  0  0  0
   -1.6561    1.6960   -0.2898 C   0  0  0  0  0  0
   -0.3190    1.6393   -0.4845 N   0  0  0  0  0  0
    0.2677    0.4095   -0.5174 C   0  0  0  0  0  0
    1.6565    0.4007   -0.6435 N   0  0  0  0  0  0
    2.3732    1.4594   -1.3698 C   0  0  0  0  0  0
    3.8240    1.1246   -1.7805 C   0  0  0  0  0  0
    4.5672    0.5804   -0.6244 N   0  0  0  0  0  0
    3.9100   -0.5085    0.1203 C   0  0  0  0  0  0
    2.4635   -0.1060    0.4745 C   0  0  0  0  0  0
    5.9275    0.6797   -0.5439 C   0  0  0  0  0  0
    6.4600    1.7583   -1.1700 N   0  0  0  0  0  0
    6.6109   -0.1144    0.1090 O   0  0  0  0  0  0
    7.8027    2.1764   -1.2258 C   0  0  0  0  0  0
    8.1635    2.9605   -2.3226 C   0  0  0  0  0  0
    9.4696    3.4239   -2.4562 C   0  0  0  0  0  0
   10.4328    3.1189   -1.4821 C   0  0  0  0  0  0
   10.0615    2.3502   -0.3787 C   0  0  0  0  0  0
    8.7575    1.8828   -0.2417 C   0  0  0  0  0  0
   11.7555    3.5229   -1.5263 O   0  0  0  0  0  0
   12.2428    4.3395   -2.5935 C   0  0  0  0  0  0
   13.7692    4.1745   -2.6201 C   0  0  0  0  0  0
   11.8329    5.8103   -2.3855 C   0  0  0  0  0  0
   -0.3163   -4.5446   -0.3041 O   0  0  0  0  0  0
    1.0717   -4.7846   -0.5153 C   0  0  0  0  0  0
   -2.9073   -4.2458    0.1134 O   0  0  0  0  0  0
   -4.3313   -4.2072    0.2233 C   0  0  0  0  0  0
   -5.0153   -3.9583   -1.1364 C   0  0  0  0  0  0
   -4.6469   -5.0249   -2.1853 C   0  0  0  0  0  0
   -5.4686   -4.8474   -3.4860 N   0  3  0  0  0  0
   -5.0211   -3.5953   -4.2818 C   0  0  0  0  0  0
   -5.8955   -3.4580   -5.5406 C   0  0  0  0  0  0
   -5.8572   -4.7244   -6.4115 C   0  0  0  0  0  0
   -6.2268   -5.9780   -5.6021 C   0  0  0  0  0  0
   -5.3510   -6.1293   -4.3464 C   0  0  0  0  0  0
   -3.7792   -1.6376    0.1713 H   0  0  0  0  0  0
    1.0912   -2.2364   -0.6061 H   0  0  0  0  0  0
   -2.1664    2.6480   -0.2531 H   0  0  0  0  0  0
    1.8036    1.7593   -2.2506 H   0  0  0  0  0  0
    2.4194    2.3106   -0.6875 H   0  0  0  0  0  0
    3.7591    0.3584   -2.5541 H   0  0  0  0  0  0
    4.2571    2.0377   -2.1901 H   0  0  0  0  0  0
    3.8486   -1.3988   -0.5068 H   0  0  0  0  0  0
    4.4192   -0.7401    1.0577 H   0  0  0  0  0  0
    2.5276    0.7240    1.1810 H   0  0  0  0  0  0
    1.9672   -0.9219    0.9994 H   0  0  0  0  0  0
    5.8251    2.3131   -1.7248 H   0  0  0  0  0  0
    7.4374    3.2083   -3.0839 H   0  0  0  0  0  0
    9.7092    4.0191   -3.3233 H   0  0  0  0  0  0
   10.7913    2.1155    0.3827 H   0  0  0  0  0  0
    8.5104    1.3104    0.6391 H   0  0  0  0  0  0
   11.8720    3.9798   -3.5546 H   0  0  0  0  0  0
   14.2167    4.7628   -3.4219 H   0  0  0  0  0  0
   14.0472    3.1328   -2.7844 H   0  0  0  0  0  0
   14.2216    4.4934   -1.6804 H   0  0  0  0  0  0
   12.2171    6.4413   -3.1877 H   0  0  0  0  0  0
   12.2224    6.1981   -1.4436 H   0  0  0  0  0  0
   10.7504    5.9335   -2.3669 H   0  0  0  0  0  0
    1.2551   -5.8590   -0.5115 H   0  0  0  0  0  0
    1.6802   -4.3444    0.2761 H   0  0  0  0  0  0
    1.4029   -4.3982   -1.4804 H   0  0  0  0  0  0
   -4.6505   -5.1760    0.6093 H   0  0  0  0  0  0
   -4.6544   -3.4839    0.9733 H   0  0  0  0  0  0
   -6.0965   -3.9500   -0.9935 H   0  0  0  0  0  0
   -4.7514   -2.9656   -1.4949 H   0  0  0  0  0  0
   -3.5925   -5.0092   -2.4677 H   0  0  0  0  0  0
   -4.9022   -6.0169   -1.8091 H   0  0  0  0  0  0
   -5.1377   -2.7262   -3.6364 H   0  0  0  0  0  0
   -3.9650   -3.7285   -4.5233 H   0  0  0  0  0  0
   -6.9240   -3.2434   -5.2466 H   0  0  0  0  0  0
   -5.5631   -2.5995   -6.1255 H   0  0  0  0  0  0
   -6.5366   -4.6146   -7.2578 H   0  0  0  0  0  0
   -4.8596   -4.8454   -6.8370 H   0  0  0  0  0  0
   -7.2772   -5.9333   -5.3105 H   0  0  0  0  0  0
   -6.1240   -6.8648   -6.2288 H   0  0  0  0  0  0
   -4.2947   -6.2569   -4.5907 H   0  0  0  0  0  0
   -5.6836   -6.9665   -3.7310 H   0  0  0  0  0  0
   -3.4109    0.7279    0.0199 H   0  0  0  0  0  0
   -6.4427   -4.7377   -3.2406 H   0  0  0  0  0  0
  1  4  2  0  0  0
  1  2  1  0  0  0
  1 30  1  0  0  0
  2  3  2  0  0  0
  2 32  1  0  0  0
  3  6  1  0  0  0
  3 42  1  0  0  0
  4  5  1  0  0  0
  4 43  1  0  0  0
  5 10  2  0  0  0
  5  6  1  0  0  0
  6  7  2  0  0  0
  7  8  1  0  0  0
  7 84  1  0  0  0
  8  9  2  0  0  0
  8 44  1  0  0  0
  9 10  1  0  0  0
 10 11  1  0  0  0
 11 12  1  0  0  0
 11 16  1  0  0  0
 12 13  1  0  0  0
 12 45  1  0  0  0
 12 46  1  0  0  0
 13 14  1  0  0  0
 13 47  1  0  0  0
 13 48  1  0  0  0
 14 15  1  0  0  0
 14 17  1  0  0  0
 15 16  1  0  0  0
 15 49  1  0  0  0
 15 50  1  0  0  0
 16 51  1  0  0  0
 16 52  1  0  0  0
 17 18  1  0  0  0
 17 19  2  0  0  0
 18 20  1  0  0  0
 18 53  1  0  0  0
 20 21  2  0  0  0
 20 25  1  0  0  0
 21 22  1  0  0  0
 21 54  1  0  0  0
 22 23  2  0  0  0
 22 55  1  0  0  0
 23 24  1  0  0  0
 23 26  1  0  0  0
 24 25  2  0  0  0
 24 56  1  0  0  0
 25 57  1  0  0  0
 26 27  1  0  0  0
 27 28  1  0  0  0
 27 29  1  0  0  0
 27 58  1  0  0  0
 28 59  1  0  0  0
 28 60  1  0  0  0
 28 61  1  0  0  0
 29 62  1  0  0  0
 29 63  1  0  0  0
 29 64  1  0  0  0
 30 31  1  0  0  0
 31 65  1  0  0  0
 31 66  1  0  0  0
 31 67  1  0  0  0
 32 33  1  0  0  0
 33 34  1  0  0  0
 33 68  1  0  0  0
 33 69  1  0  0  0
 34 35  1  0  0  0
 34 70  1  0  0  0
 34 71  1  0  0  0
 35 36  1  0  0  0
 35 72  1  0  0  0
 35 73  1  0  0  0
 36 37  1  0  0  0
 36 41  1  0  0  0
 36 85  1  0  0  0
 37 38  1  0  0  0
 37 74  1  0  0  0
 37 75  1  0  0  0
 38 39  1  0  0  0
 38 76  1  0  0  0
 38 77  1  0  0  0
 39 40  1  0  0  0
 39 78  1  0  0  0
 39 79  1  0  0  0
 40 41  1  0  0  0
 40 80  1  0  0  0
 40 81  1  0  0  0
 41 82  1  0  0  0
 41 83  1  0  0  0
M  CHG  2   7   1  36   1
M  END
> <chembl_id>
CHEMBL124660

> <chembl_pref_name>
TANDUTINIB

> <s_m_source_file>
sdf/inactives_sanitized.sdf

> <i_m_source_file_index>
232

> <i_lp_mmshare_version>
49012

> <i_m_ct_stereo_status>
1

> <i_f3d_flags>
0

> <s_epik_input>
W0NIMl0xW0NIMl1bQ0gyXVtDSDJdW0NIMl1OMVtDSDJdW0NIMl1bQ0gyXU9jKGMoW2NIXTIpT1tDSDNdKVtjSF1jKGMyMyluW2NIXW5jM040W0NIMl1bQ0gyXU4oW0NIMl1bQ0gyXTQpQyg9TylbTkhdYzVbY0hdW2NIXWMoW2NIXVtjSF01KU9bQ0hdKFtDSDNdKVtDSDNd

> <s_epik_cmdline>
J2VwaWtfcHl0aG9uJywgJy1waHQnLCAnMC41JywgJy1waCcsICc3LjUnLCAnLW50JywgJy1tYScsICcyMDAnLCAnLWltYWUnLCAnPGluZmlsZS5tYWU+JywgJy1vbWFlJywgJzxvdXRmaWxlLm1hZT4n

> <r_lp_tautomer_probability>
1

> <r_epik_Ionization_Penalty>
  0.0068

> <r_epik_Ionization_Penalty_Charging>
  0.0068

> <r_epik_Ionization_Penalty_Neutral>
  0.0000

> <r_epik_State_Penalty>
 -0.0000

> <r_epik_Charging_Adjusted_Penalty>
0.00678615190887081

> <i_epik_Tot_Q>
2

> <i_epik_Tot_abs_Q>
2

> <s_lp_Force_Field>
OPLS3e

> <r_lp_Energy>
99.868436

> <b_lp_Chiralities_Consistent>
1

> <s_lp_Variant>
sdf/inactives_sanitized.sdf:232-1

$$$$
sdf/inactives_sanitized.sdf:233
                    3D
 Schrodinger Suite 2020-1.
 70 74  0  0  1  0            999 V2000
   -3.3437   -1.1035   -2.3180 O   0  0  0  0  0  0
    3.9556    2.0866   -1.8409 O   0  0  0  0  0  0
   -0.3479   -0.4041   -0.6079 N   0  0  0  0  0  0
   -1.1810   -1.2157   -1.4446 N   0  0  0  0  0  0
   -0.6680    1.8173    0.3790 N   0  0  0  0  0  0
    1.8355    0.4515   -0.5795 N   0  0  0  0  0  0
   -2.8516    2.7909   -0.0211 N   0  0  0  0  0  0
   -1.2181    3.9821    1.1878 N   0  0  0  0  0  0
    3.4751    4.9333    4.1117 N   0  0  0  0  0  0
    6.3056    5.1854    3.2499 N   0  3  0  0  0  0
   -1.0789    0.7462   -0.3420 C   0  0  0  0  0  0
   -2.3227    0.6196   -0.9059 C   0  0  0  0  0  0
   -2.4081   -0.6679   -1.6468 C   0  0  0  0  0  0
    1.0295   -0.6335   -0.4288 C   0  0  0  0  0  0
   -3.2155    1.6779   -0.7255 C   0  0  0  0  0  0
   -1.5895    2.8155    0.5034 C   0  0  0  0  0  0
   -0.6706   -2.3137   -2.2892 C   0  0  0  0  0  0
    1.5487   -1.8679   -0.0193 C   0  0  0  0  0  0
    3.1676    0.3535   -0.3239 C   0  0  0  0  0  0
    3.9616    1.6659   -0.4889 C   0  0  0  0  0  0
    2.9191   -1.9798    0.2209 C   0  0  0  0  0  0
    3.7427   -0.8625    0.0733 C   0  0  0  0  0  0
   -0.0486    4.2193    1.9268 C   0  0  0  0  0  0
    0.1331   -1.8224   -3.4816 C   0  0  0  0  0  0
    2.3105    4.7106    3.3744 C   0  0  0  0  0  0
    0.7123    5.3547    1.6562 C   0  0  0  0  0  0
    0.3531    3.3392    2.9333 C   0  0  0  0  0  0
    5.4553    1.5488   -0.1012 C   0  0  0  0  0  0
    3.3167    2.8220    0.3141 C   0  0  0  0  0  0
    1.8851    5.5938    2.3688 C   0  0  0  0  0  0
    1.5186    3.5876    3.6521 C   0  0  0  0  0  0
    1.4077   -2.1588   -3.7343 C   0  0  0  0  0  0
    4.4622    3.8530    4.3113 C   0  0  0  0  0  0
    4.1962    6.2202    4.1058 C   0  0  0  0  0  0
    5.5745    3.8295    3.2388 C   0  0  0  0  0  0
    5.2766    6.3053    3.0042 C   0  0  0  0  0  0
    7.4107    5.2137    2.1762 C   0  0  0  0  0  0
    3.0463    2.2513   -2.1015 H   0  0  0  0  0  0
   -1.9197    4.7071    1.2244 H   0  0  0  0  0  0
   -4.2116    1.6703   -1.1439 H   0  0  0  0  0  0
   -0.1075   -3.0379   -1.7057 H   0  0  0  0  0  0
   -1.5069   -2.8850   -2.6974 H   0  0  0  0  0  0
    0.9070   -2.7177    0.1567 H   0  0  0  0  0  0
    3.3372   -2.9222    0.5425 H   0  0  0  0  0  0
    4.7987   -0.9562    0.2763 H   0  0  0  0  0  0
   -0.3784   -1.1533   -4.1588 H   0  0  0  0  0  0
    0.4087    6.0462    0.8833 H   0  0  0  0  0  0
   -0.2361    2.4629    3.1627 H   0  0  0  0  0  0
    5.5734    1.2437    0.9393 H   0  0  0  0  0  0
    5.9770    2.5009   -0.2128 H   0  0  0  0  0  0
    5.9821    0.8240   -0.7241 H   0  0  0  0  0  0
    3.2442    2.5700    1.3724 H   0  0  0  0  0  0
    2.3069    3.0517   -0.0304 H   0  0  0  0  0  0
    3.8913    3.7460    0.2342 H   0  0  0  0  0  0
    2.4564    6.4747    2.1188 H   0  0  0  0  0  0
    1.7948    2.8962    4.4348 H   0  0  0  0  0  0
    1.9551   -2.8223   -3.0805 H   0  0  0  0  0  0
    1.9221   -1.7714   -4.6013 H   0  0  0  0  0  0
    4.9083    3.9637    5.3013 H   0  0  0  0  0  0
    3.9742    2.8788    4.3207 H   0  0  0  0  0  0
    3.4919    7.0466    4.0043 H   0  0  0  0  0  0
    4.6609    6.3632    5.0830 H   0  0  0  0  0  0
    5.1898    3.6730    2.2316 H   0  0  0  0  0  0
    6.3284    3.0718    3.4577 H   0  0  0  0  0  0
    5.8277    7.2455    3.0525 H   0  0  0  0  0  0
    4.8733    6.1711    1.9982 H   0  0  0  0  0  0
    6.9445    5.0625    1.2009 H   0  0  0  0  0  0
    8.1100    4.4116    2.4157 H   0  0  0  0  0  0
    7.8981    6.1872    2.2430 H   0  0  0  0  0  0
    6.7162    5.3215    4.1631 H   0  0  0  0  0  0
  1 13  2  0  0  0
  2 20  1  0  0  0
  2 38  1  0  0  0
  3  4  1  0  0  0
  3 11  1  0  0  0
  3 14  1  0  0  0
  4 13  1  0  0  0
  4 17  1  0  0  0
  5 11  2  0  0  0
  5 16  1  0  0  0
  6 14  2  0  0  0
  6 19  1  0  0  0
  7 15  1  0  0  0
  7 16  2  0  0  0
  8 16  1  0  0  0
  8 23  1  0  0  0
  8 39  1  0  0  0
  9 25  1  0  0  0
  9 33  1  0  0  0
  9 34  1  0  0  0
 10 35  1  0  0  0
 10 36  1  0  0  0
 10 37  1  0  0  0
 10 70  1  0  0  0
 11 12  1  0  0  0
 12 13  1  0  0  0
 12 15  2  0  0  0
 14 18  1  0  0  0
 15 40  1  0  0  0
 17 24  1  0  0  0
 17 41  1  0  0  0
 17 42  1  0  0  0
 18 21  2  0  0  0
 18 43  1  0  0  0
 19 20  1  0  0  0
 19 22  2  0  0  0
 20 28  1  0  0  0
 20 29  1  0  0  0
 21 22  1  0  0  0
 21 44  1  0  0  0
 22 45  1  0  0  0
 23 26  2  0  0  0
 23 27  1  0  0  0
 24 32  2  0  0  0
 24 46  1  0  0  0
 25 30  2  0  0  0
 25 31  1  0  0  0
 26 30  1  0  0  0
 26 47  1  0  0  0
 27 31  2  0  0  0
 27 48  1  0  0  0
 28 49  1  0  0  0
 28 50  1  0  0  0
 28 51  1  0  0  0
 29 52  1  0  0  0
 29 53  1  0  0  0
 29 54  1  0  0  0
 30 55  1  0  0  0
 31 56  1  0  0  0
 32 57  1  0  0  0
 32 58  1  0  0  0
 33 35  1  0  0  0
 33 59  1  0  0  0
 33 60  1  0  0  0
 34 36  1  0  0  0
 34 61  1  0  0  0
 34 62  1  0  0  0
 35 63  1  0  0  0
 35 64  1  0  0  0
 36 65  1  0  0  0
 36 66  1  0  0  0
 37 67  1  0  0  0
 37 68  1  0  0  0
 37 69  1  0  0  0
M  CHG  1  10   1
M  END
> <chembl_id>
CHEMBL1976040

> <chembl_pref_name>
ADAVOSERTIB

> <s_m_source_file>
sdf/inactives_sanitized.sdf

> <i_m_source_file_index>
233

> <i_lp_mmshare_version>
49012

> <i_m_ct_stereo_status>
1

> <i_f3d_flags>
0

> <s_epik_input>
W2NIXTFbY0hdW2NIXWMoQyhbT0hdKShbQ0gzXSlbQ0gzXSluYzEtbjJuKFtDSDJdW0NIXT1bQ0gyXSljKD1PKWMoYzIzKVtjSF1uYyhuMylbTkhdYzRbY0hdW2NIXWMoW2NIXVtjSF00KU41W0NIMl1bQ0gyXU4oW0NIM10pW0NIMl1bQ0gyXTU=

> <s_epik_cmdline>
J2VwaWtfcHl0aG9uJywgJy1waHQnLCAnMC41JywgJy1waCcsICc3LjUnLCAnLW50JywgJy1tYScsICcyMDAnLCAnLWltYWUnLCAnPGluZmlsZS5tYWU+JywgJy1vbWFlJywgJzxvdXRmaWxlLm1hZT4n

> <r_epik_Ionization_Penalty>
  0.1850

> <r_epik_Ionization_Penalty_Charging>
  0.1844

> <r_epik_Ionization_Penalty_Neutral>
  0.0006

> <r_epik_State_Penalty>
  0.1740

> <r_epik_Charging_Adjusted_Penalty>
0.358418666634107

> <i_epik_Tot_Q>
1

> <i_epik_Tot_abs_Q>
1

> <s_epik_Chemistry_Notes>
This compound has an imine and may undergo hydrolysis.

> <s_lp_Force_Field>
OPLS3e

> <r_lp_Energy>
66.131928

> <b_lp_Chiralities_Consistent>
1

> <s_lp_Variant>
sdf/inactives_sanitized.sdf:233-1

$$$$
sdf/inactives_sanitized.sdf:234
                    3D
 Schrodinger Suite 2020-1.
 41 43  0  0  1  0            999 V2000
   -5.0496    6.0261    0.8842 F   0  0  0  0  0  0
   -3.1110    6.0093   -0.0688 F   0  0  0  0  0  0
   -3.3011    5.4623    2.0206 F   0  0  0  0  0  0
   -0.1353    2.5444    0.2824 O   0  0  0  0  0  0
   -2.9035    3.1922    0.3430 N   0  0  0  0  0  0
    0.2447    0.3235   -0.1552 N   0  0  0  0  0  0
    4.4507   -0.2164    0.0965 N   0  0  0  0  0  0
   -1.8337    1.0621   -0.1100 N   0  0  0  0  0  0
    2.2262   -1.0788   -0.4392 C   0  0  0  0  0  0
    1.6489    0.1821   -0.0701 C   0  0  0  0  0  0
    3.6469   -1.2241   -0.3375 C   0  0  0  0  0  0
   -4.0510    3.9193    0.4224 C   0  0  0  0  0  0
   -3.8815    5.3836    0.8222 C   0  0  0  0  0  0
   -2.9777    1.8763   -0.0115 C   0  0  0  0  0  0
    1.4697   -2.1937   -0.9051 C   0  0  0  0  0  0
   -0.5365    1.4073    0.0313 C   0  0  0  0  0  0
    2.0949   -3.3919   -1.2542 C   0  0  0  0  0  0
    2.5094    1.1954    0.3826 C   0  0  0  0  0  0
    4.2545   -2.4508   -0.6964 C   0  0  0  0  0  0
   -5.3060    3.3594    0.1545 C   0  0  0  0  0  0
    3.4788   -3.5129   -1.1485 C   0  0  0  0  0  0
    3.8769    0.9569    0.4445 C   0  0  0  0  0  0
   -4.2026    1.2604   -0.2895 C   0  0  0  0  0  0
   -5.3749    2.0131   -0.2049 C   0  0  0  0  0  0
    1.2673   -4.5678   -1.7528 C   0  0  0  0  0  0
    1.3056   -4.7158   -3.2805 C   0  0  0  0  0  0
   -0.2373   -0.5338   -0.3823 H   0  0  0  0  0  0
   -2.0229    0.0975   -0.3383 H   0  0  0  0  0  0
    0.3963   -2.1110   -0.9946 H   0  0  0  0  0  0
    2.1570    2.1636    0.6978 H   0  0  0  0  0  0
    5.3271   -2.5600   -0.6186 H   0  0  0  0  0  0
   -6.2106    3.9461    0.2208 H   0  0  0  0  0  0
    3.9616   -4.4407   -1.4200 H   0  0  0  0  0  0
    4.5484    1.7293    0.7895 H   0  0  0  0  0  0
   -4.2535    0.2173   -0.5676 H   0  0  0  0  0  0
   -6.3302    1.5558   -0.4166 H   0  0  0  0  0  0
    1.6275   -5.4819   -1.2780 H   0  0  0  0  0  0
    0.2337   -4.4582   -1.4207 H   0  0  0  0  0  0
    0.7020   -5.5641   -3.6038 H   0  0  0  0  0  0
    2.3225   -4.8787   -3.6395 H   0  0  0  0  0  0
    0.9147   -3.8250   -3.7737 H   0  0  0  0  0  0
  1 13  1  0  0  0
  2 13  1  0  0  0
  3 13  1  0  0  0
  4 16  2  0  0  0
  5 12  2  0  0  0
  5 14  1  0  0  0
  6 10  1  0  0  0
  6 16  1  0  0  0
  6 27  1  0  0  0
  7 11  2  0  0  0
  7 22  1  0  0  0
  8 14  1  0  0  0
  8 16  1  0  0  0
  8 28  1  0  0  0
  9 10  2  0  0  0
  9 11  1  0  0  0
  9 15  1  0  0  0
 10 18  1  0  0  0
 11 19  1  0  0  0
 12 13  1  0  0  0
 12 20  1  0  0  0
 14 23  2  0  0  0
 15 17  2  0  0  0
 15 29  1  0  0  0
 17 21  1  0  0  0
 17 25  1  0  0  0
 18 22  2  0  0  0
 18 30  1  0  0  0
 19 21  2  0  0  0
 19 31  1  0  0  0
 20 24  2  0  0  0
 20 32  1  0  0  0
 21 33  1  0  0  0
 22 34  1  0  0  0
 23 24  1  0  0  0
 23 35  1  0  0  0
 24 36  1  0  0  0
 25 26  1  0  0  0
 25 37  1  0  0  0
 25 38  1  0  0  0
 26 39  1  0  0  0
 26 40  1  0  0  0
 26 41  1  0  0  0
M  END
> <chembl_id>
CHEMBL2000934

> <chembl_pref_name>
None

> <s_m_source_file>
sdf/inactives_sanitized.sdf

> <i_m_source_file_index>
234

> <i_lp_mmshare_version>
49012

> <i_m_ct_stereo_status>
1

> <i_f3d_flags>
0

> <s_epik_input>
RkMoRikoRiljMW5jKFtjSF1bY0hdW2NIXTEpW05IXUMoPU8pW05IXWMyW2NIXVtjSF1uYyhjMjMpW2NIXVtjSF1jKFtjSF0zKVtDSDJdW0NIM10=

> <s_epik_cmdline>
J2VwaWtfcHl0aG9uJywgJy1waHQnLCAnMC41JywgJy1waCcsICc3LjUnLCAnLW50JywgJy1tYScsICcyMDAnLCAnLWltYWUnLCAnPGluZmlsZS5tYWU+JywgJy1vbWFlJywgJzxvdXRmaWxlLm1hZT4n

> <r_epik_Ionization_Penalty>
  0.0422

> <r_epik_Ionization_Penalty_Charging>
  0.0000

> <r_epik_Ionization_Penalty_Neutral>
  0.0422

> <r_epik_State_Penalty>
  0.0356

> <r_epik_Charging_Adjusted_Penalty>
0.0355981784408966

> <i_epik_Tot_Q>
0

> <i_epik_Tot_abs_Q>
0

> <s_lp_Force_Field>
OPLS3e

> <r_lp_Energy>
47.452793

> <b_lp_Chiralities_Consistent>
1

> <s_lp_Variant>
sdf/inactives_sanitized.sdf:234-1

$$$$
sdf/inactives_sanitized.sdf:235
                    3D
 Schrodinger Suite 2020-1.
 40 42  0  0  1  0            999 V2000
    6.0553    1.6240    0.5319 F   0  0  0  0  0  0
    4.8225    1.9015    2.2867 F   0  0  0  0  0  0
    4.4820    3.1008    0.5156 F   0  0  0  0  0  0
   -0.0861    2.6707    0.0891 O   0  0  0  0  0  0
  -10.0032    6.8358    0.0651 O   0  0  0  0  0  0
    0.1272    0.3988   -0.1167 N   0  0  0  0  0  0
   -1.8928    1.2822   -0.1474 N   0  0  0  0  0  0
   -7.6441    4.2168   -0.6308 N   0  0  0  0  0  0
   -8.7876    5.0079   -0.5872 N   0  0  0  0  0  0
    3.8160    0.8359    0.4736 C   0  0  0  0  0  0
    4.8169    1.8862    0.9541 C   0  0  0  0  0  0
    1.5171    0.1887   -0.0299 C   0  0  0  0  0  0
   -5.3202    3.7453   -0.0221 C   0  0  0  0  0  0
    2.4500    1.1423    0.4153 C   0  0  0  0  0  0
   -6.5659    4.5554    0.0082 C   0  0  0  0  0  0
   -2.9927    2.1596   -0.0875 C   0  0  0  0  0  0
    4.2460   -0.4399    0.0897 C   0  0  0  0  0  0
   -0.5746    1.5483   -0.0407 C   0  0  0  0  0  0
   -4.0864    4.2653    0.3999 C   0  0  0  0  0  0
   -5.3665    2.4158   -0.4699 C   0  0  0  0  0  0
    1.9700   -1.0810   -0.3992 C   0  0  0  0  0  0
   -2.9345    3.4835    0.3703 C   0  0  0  0  0  0
   -4.2168    1.6320   -0.4977 C   0  0  0  0  0  0
    3.3268   -1.3935   -0.3429 C   0  0  0  0  0  0
   -6.6309    5.8008    0.7680 C   0  0  0  0  0  0
   -8.9610    6.1847    0.0792 C   0  0  0  0  0  0
   -7.7545    6.5575    0.7982 C   0  0  0  0  0  0
   -0.4073   -0.4385   -0.2955 H   0  0  0  0  0  0
   -2.1392    0.3236   -0.3454 H   0  0  0  0  0  0
   -9.5659    4.6514   -1.1230 H   0  0  0  0  0  0
    2.1383    2.1236    0.7359 H   0  0  0  0  0  0
    5.2931   -0.7025    0.1305 H   0  0  0  0  0  0
   -3.9843    5.2818    0.7468 H   0  0  0  0  0  0
   -6.2947    1.9684   -0.7963 H   0  0  0  0  0  0
    1.2726   -1.8351   -0.7361 H   0  0  0  0  0  0
   -2.0172    3.9301    0.7192 H   0  0  0  0  0  0
   -4.2866    0.6108   -0.8449 H   0  0  0  0  0  0
    3.6663   -2.3767   -0.6338 H   0  0  0  0  0  0
   -5.7922    6.1631    1.3414 H   0  0  0  0  0  0
   -7.7682    7.4711    1.3748 H   0  0  0  0  0  0
  1 11  1  0  0  0
  2 11  1  0  0  0
  3 11  1  0  0  0
  4 18  2  0  0  0
  5 26  2  0  0  0
  6 12  1  0  0  0
  6 18  1  0  0  0
  6 28  1  0  0  0
  7 16  1  0  0  0
  7 18  1  0  0  0
  7 29  1  0  0  0
  8  9  1  0  0  0
  8 15  2  0  0  0
  9 26  1  0  0  0
  9 30  1  0  0  0
 10 11  1  0  0  0
 10 14  2  0  0  0
 10 17  1  0  0  0
 12 14  1  0  0  0
 12 21  2  0  0  0
 13 15  1  0  0  0
 13 19  2  0  0  0
 13 20  1  0  0  0
 14 31  1  0  0  0
 15 25  1  0  0  0
 16 22  2  0  0  0
 16 23  1  0  0  0
 17 24  2  0  0  0
 17 32  1  0  0  0
 19 22  1  0  0  0
 19 33  1  0  0  0
 20 23  2  0  0  0
 20 34  1  0  0  0
 21 24  1  0  0  0
 21 35  1  0  0  0
 22 36  1  0  0  0
 23 37  1  0  0  0
 24 38  1  0  0  0
 25 27  2  0  0  0
 25 39  1  0  0  0
 26 27  1  0  0  0
 27 40  1  0  0  0
M  END
> <chembl_id>
CHEMBL2007124

> <chembl_pref_name>
None

> <s_m_source_file>
sdf/inactives_sanitized.sdf

> <i_m_source_file_index>
235

> <i_lp_mmshare_version>
49012

> <i_m_ct_stereo_status>
1

> <i_f3d_flags>
0

> <s_epik_input>
RkMoRikoRiljMVtjSF1jKFtjSF1bY0hdW2NIXTEpW05IXUMoPU8pW05IXWMoW2NIXVtjSF0yKVtjSF1bY0hdYzItYzNuW25IXWMoPU8pW2NIXVtjSF0z

> <s_epik_cmdline>
J2VwaWtfcHl0aG9uJywgJy1waHQnLCAnMC41JywgJy1waCcsICc3LjUnLCAnLW50JywgJy1tYScsICcyMDAnLCAnLWltYWUnLCAnPGluZmlsZS5tYWU+JywgJy1vbWFlJywgJzxvdXRmaWxlLm1hZT4n

> <r_lp_tautomer_probability>
1

> <r_epik_Ionization_Penalty>
  0.0012

> <r_epik_Ionization_Penalty_Charging>
  0.0012

> <r_epik_Ionization_Penalty_Neutral>
  0.0000

> <r_epik_State_Penalty>
 -0.0000

> <r_epik_Charging_Adjusted_Penalty>
0.00120847334511951

> <i_epik_Tot_Q>
0

> <i_epik_Tot_abs_Q>
0

> <s_lp_Force_Field>
OPLS3e

> <r_lp_Energy>
57.725154

> <b_lp_Chiralities_Consistent>
1

> <s_lp_Variant>
sdf/inactives_sanitized.sdf:235-1

$$$$
sdf/inactives_sanitized.sdf:236
                    3D
 Schrodinger Suite 2020-1.
 52 54  0  0  1  0            999 V2000
   -3.8882   -0.4897    0.9999 C   0  0  0  0  0  0
   -2.5536   -0.0080    1.0133 O   0  0  0  0  0  0
   -2.2235    0.7795   -0.1232 C   0  0  0  0  0  0
   -0.7533    1.2080   -0.0367 C   0  0  0  0  0  0
    0.0688    0.0438   -0.0143 O   0  0  0  0  0  0
    1.4433    0.1693    0.0867 C   0  0  0  0  0  0
    2.1025    1.4060    0.1516 C   0  0  0  0  0  0
    3.5092    1.4728    0.2563 C   0  0  0  0  0  0
    4.1057    2.6973    0.3132 N   0  0  0  0  0  0
    5.4563    2.7107    0.4117 C   0  0  0  0  0  0
    6.2749    1.6354    0.4621 N   0  0  0  0  0  0
    5.6858    0.4131    0.4114 C   0  0  0  0  0  0
    6.5106   -0.7289    0.4469 N   0  0  0  0  0  0
    7.8942   -0.9134    0.6209 C   0  0  0  0  0  0
    8.4587   -2.0911    0.1213 C   0  0  0  0  0  0
    9.8212   -2.3465    0.2731 C   0  0  0  0  0  0
   10.6342   -1.4281    0.9353 C   0  0  0  0  0  0
   10.0826   -0.2539    1.4539 C   0  0  0  0  0  0
    8.7154   -0.0013    1.3006 C   0  0  0  0  0  0
   10.9281    0.7000    2.1571 C   0  0  0  0  0  0
   11.6290    1.5042    2.7521 C   0  0  0  0  0  0
    4.2672    0.2642    0.2993 C   0  0  0  0  0  0
    3.5793   -0.9755    0.2306 C   0  0  0  0  0  0
    2.1810   -1.0204    0.1234 C   0  0  0  0  0  0
    1.4605   -2.2001    0.0498 O   0  0  0  0  0  0
    2.1385   -3.4534    0.0898 C   0  0  0  0  0  0
    1.1092   -4.5863   -0.0156 C   0  0  0  0  0  0
    0.2028   -4.5081    1.0767 O   0  0  0  0  0  0
   -0.8112   -5.5005    1.0426 C   0  0  0  0  0  0
   -4.0734   -1.0726    1.9020 H   0  0  0  0  0  0
   -4.0683   -1.1380    0.1409 H   0  0  0  0  0  0
   -4.6080    0.3299    0.9782 H   0  0  0  0  0  0
   -2.3847    0.2090   -1.0400 H   0  0  0  0  0  0
   -2.8628    1.6630   -0.1677 H   0  0  0  0  0  0
   -0.5035    1.8319   -0.8965 H   0  0  0  0  0  0
   -0.5995    1.8007    0.8671 H   0  0  0  0  0  0
    1.5534    2.3356    0.1224 H   0  0  0  0  0  0
    5.9292    3.6809    0.4535 H   0  0  0  0  0  0
    6.0167   -1.5817    0.2289 H   0  0  0  0  0  0
    7.8436   -2.8153   -0.3942 H   0  0  0  0  0  0
   10.2470   -3.2572   -0.1218 H   0  0  0  0  0  0
   11.6887   -1.6399    1.0458 H   0  0  0  0  0  0
    8.2984    0.8974    1.7300 H   0  0  0  0  0  0
   12.2387    2.2076    3.2735 H   0  0  0  0  0  0
    4.1593   -1.8848    0.2635 H   0  0  0  0  0  0
    2.8460   -3.5290   -0.7378 H   0  0  0  0  0  0
    2.6975   -3.5523    1.0221 H   0  0  0  0  0  0
    0.5709   -4.5036   -0.9618 H   0  0  0  0  0  0
    1.6217   -5.5499   -0.0111 H   0  0  0  0  0  0
   -1.4641   -5.3828    1.9074 H   0  0  0  0  0  0
   -0.3872   -6.5052    1.0781 H   0  0  0  0  0  0
   -1.4261   -5.4105    0.1458 H   0  0  0  0  0  0
  1  2  1  0  0  0
  1 30  1  0  0  0
  1 31  1  0  0  0
  1 32  1  0  0  0
  2  3  1  0  0  0
  3  4  1  0  0  0
  3 33  1  0  0  0
  3 34  1  0  0  0
  4  5  1  0  0  0
  4 35  1  0  0  0
  4 36  1  0  0  0
  5  6  1  0  0  0
  6  7  2  0  0  0
  6 24  1  0  0  0
  7  8  1  0  0  0
  7 37  1  0  0  0
  8  9  2  0  0  0
  8 22  1  0  0  0
  9 10  1  0  0  0
 10 11  2  0  0  0
 10 38  1  0  0  0
 11 12  1  0  0  0
 12 13  1  0  0  0
 12 22  2  0  0  0
 13 14  1  0  0  0
 13 39  1  0  0  0
 14 15  2  0  0  0
 14 19  1  0  0  0
 15 16  1  0  0  0
 15 40  1  0  0  0
 16 17  2  0  0  0
 16 41  1  0  0  0
 17 18  1  0  0  0
 17 42  1  0  0  0
 18 19  2  0  0  0
 18 20  1  0  0  0
 19 43  1  0  0  0
 20 21  3  0  0  0
 21 44  1  0  0  0
 22 23  1  0  0  0
 23 24  2  0  0  0
 23 45  1  0  0  0
 24 25  1  0  0  0
 25 26  1  0  0  0
 26 27  1  0  0  0
 26 46  1  0  0  0
 26 47  1  0  0  0
 27 28  1  0  0  0
 27 48  1  0  0  0
 27 49  1  0  0  0
 28 29  1  0  0  0
 29 50  1  0  0  0
 29 51  1  0  0  0
 29 52  1  0  0  0
M  END
> <chembl_id>
CHEMBL553

> <chembl_pref_name>
ERLOTINIB

> <s_m_source_file>
sdf/inactives_sanitized.sdf

> <i_m_source_file_index>
236

> <i_lp_mmshare_version>
49012

> <i_m_ct_stereo_status>
1

> <i_f3d_flags>
0

> <s_epik_input>
W0NIM11PW0NIMl1bQ0gyXU9jKFtjSF0xKWMoT1tDSDJdW0NIMl1PW0NIM10pW2NIXWMoYzEyKWMobltjSF1uMilbTkhdYzNbY0hdW2NIXVtjSF1jKFtjSF0zKUMjW0NIXQ==

> <s_epik_cmdline>
J2VwaWtfcHl0aG9uJywgJy1waHQnLCAnMC41JywgJy1waCcsICc3LjUnLCAnLW50JywgJy1tYScsICcyMDAnLCAnLWltYWUnLCAnPGluZmlsZS5tYWU+JywgJy1vbWFlJywgJzxvdXRmaWxlLm1hZT4n

> <r_lp_tautomer_probability>
1

> <r_epik_Ionization_Penalty>
  0.0004

> <r_epik_Ionization_Penalty_Charging>
  0.0000

> <r_epik_Ionization_Penalty_Neutral>
  0.0004

> <r_epik_State_Penalty>
 -0.0000

> <r_epik_Charging_Adjusted_Penalty>
0

> <i_epik_Tot_Q>
0

> <i_epik_Tot_abs_Q>
0

> <s_lp_Force_Field>
OPLS3e

> <r_lp_Energy>
38.210859

> <b_lp_Chiralities_Consistent>
1

> <s_lp_Variant>
sdf/inactives_sanitized.sdf:236-1

$$$$
sdf/inactives_sanitized.sdf:237
                    3D
 Schrodinger Suite 2020-1.
 66 70  0  0  1  0            999 V2000
   -1.6655    1.3715   -0.9461 N   0  0  0  0  0  0
   -0.3600    1.7367   -0.8687 C   0  0  0  0  0  0
    0.1151    3.0069   -0.7314 N   0  0  0  0  0  0
   -2.6165    2.3397   -0.8622 C   0  0  0  0  0  0
   -2.2397    3.6870   -0.7112 C   0  0  0  0  0  0
   -0.8412    3.9363   -0.6546 C   0  0  0  0  0  0
   -0.6686    5.2954   -0.5083 N   0  0  0  0  0  0
   -1.8984    5.9096   -0.4683 C   0  0  0  0  0  0
   -2.8958    4.9587   -0.5891 C   0  0  0  0  0  0
    0.5501    0.6749   -0.9755 N   0  0  0  0  0  0
   -3.9866    2.0314   -0.9234 N   0  0  0  0  0  0
    1.9434    0.6157   -0.7805 C   0  0  0  0  0  0
   -4.7599    0.8522   -1.0334 C   0  0  0  0  0  0
    2.7108   -0.2641   -1.5660 C   0  0  0  0  0  0
    4.1030   -0.3113   -1.3710 C   0  0  0  0  0  0
    2.5650    1.3964    0.2043 C   0  0  0  0  0  0
   -4.1663   -0.4191   -1.0982 C   0  0  0  0  0  0
   -4.9398   -1.5713   -1.1997 C   0  0  0  0  0  0
   -6.3250   -1.4783   -1.2335 C   0  0  0  0  0  0
   -6.9426   -0.2327   -1.1707 C   0  0  0  0  0  0
   -6.1751    0.9435   -1.0834 C   0  0  0  0  0  0
    2.0509   -1.0263   -2.5174 O   0  0  0  0  0  0
    2.7913   -1.9170   -3.3452 C   0  0  0  0  0  0
   -6.8887    2.2723   -0.9923 C   0  0  0  0  0  0
   -7.6135    2.6153   -2.0607 N   0  0  0  0  0  0
   -6.7866    2.9892    0.0011 O   0  0  0  0  0  0
   -8.2973   -0.1855   -1.1930 F   0  0  0  0  0  0
    3.9428    1.2940    0.4286 C   0  0  0  0  0  0
    4.7094    0.4658   -0.3865 C   0  0  0  0  0  0
    6.1683    0.6733   -0.1090 C   0  0  0  0  0  0
    6.1593    1.5223    1.1538 C   0  0  0  0  0  0
    4.7847    2.0148    1.3050 N   0  0  0  0  0  0
    4.4125    2.7586    2.3842 C   0  0  0  0  0  0
    5.5046    3.4145    3.2679 C   0  0  0  0  0  0
    3.2317    2.9554    2.6808 O   0  0  0  0  0  0
    5.0390    3.4924    4.6971 N   0  3  0  0  0  0
    5.1251    2.1211    5.4038 C   0  0  0  0  0  0
    5.8439    4.5545    5.4744 C   0  0  0  0  0  0
    0.2008    5.8038   -0.4366 H   0  0  0  0  0  0
   -1.9575    6.9825   -0.3556 H   0  0  0  0  0  0
   -3.9570    5.1607   -0.5882 H   0  0  0  0  0  0
    0.1145   -0.2198   -1.1461 H   0  0  0  0  0  0
   -4.5622    2.8578   -0.8562 H   0  0  0  0  0  0
    4.7259   -0.9365   -1.9921 H   0  0  0  0  0  0
    1.9605    2.0592    0.8026 H   0  0  0  0  0  0
   -3.0995   -0.5574   -1.0683 H   0  0  0  0  0  0
   -4.4618   -2.5385   -1.2473 H   0  0  0  0  0  0
   -6.9224   -2.3755   -1.3050 H   0  0  0  0  0  0
    2.1072   -2.4344   -4.0177 H   0  0  0  0  0  0
    3.3102   -2.6748   -2.7562 H   0  0  0  0  0  0
    3.5156   -1.3817   -3.9608 H   0  0  0  0  0  0
   -7.6730    1.9956   -2.8552 H   0  0  0  0  0  0
   -8.1150    3.4913   -2.0730 H   0  0  0  0  0  0
    6.7616   -0.2332    0.0158 H   0  0  0  0  0  0
    6.6216    1.2441   -0.9205 H   0  0  0  0  0  0
    6.3082    0.8369    1.9905 H   0  0  0  0  0  0
    6.9621    2.2575    1.2179 H   0  0  0  0  0  0
    6.4913    2.9508    3.2611 H   0  0  0  0  0  0
    5.6133    4.4514    2.9459 H   0  0  0  0  0  0
    6.1692    1.8043    5.4012 H   0  0  0  0  0  0
    4.4920    1.4209    4.8577 H   0  0  0  0  0  0
    4.7521    2.2599    6.4193 H   0  0  0  0  0  0
    6.8952    4.2620    5.4558 H   0  0  0  0  0  0
    5.4514    4.5757    6.4919 H   0  0  0  0  0  0
    5.6825    5.5146    4.9822 H   0  0  0  0  0  0
    4.0728    3.7913    4.7078 H   0  0  0  0  0  0
  1  4  2  0  0  0
  1  2  1  0  0  0
  2 10  1  0  0  0
  2  3  2  0  0  0
  3  6  1  0  0  0
  4 11  1  0  0  0
  4  5  1  0  0  0
  5  9  1  0  0  0
  5  6  2  0  0  0
  6  7  1  0  0  0
  7  8  1  0  0  0
  7 39  1  0  0  0
  8  9  2  0  0  0
  8 40  1  0  0  0
  9 41  1  0  0  0
 10 12  1  0  0  0
 10 42  1  0  0  0
 11 13  1  0  0  0
 11 43  1  0  0  0
 12 14  2  0  0  0
 12 16  1  0  0  0
 13 21  2  0  0  0
 13 17  1  0  0  0
 14 22  1  0  0  0
 14 15  1  0  0  0
 15 29  2  0  0  0
 15 44  1  0  0  0
 16 28  2  0  0  0
 16 45  1  0  0  0
 17 18  2  0  0  0
 17 46  1  0  0  0
 18 19  1  0  0  0
 18 47  1  0  0  0
 19 20  2  0  0  0
 19 48  1  0  0  0
 20 21  1  0  0  0
 20 27  1  0  0  0
 21 24  1  0  0  0
 22 23  1  0  0  0
 23 49  1  0  0  0
 23 50  1  0  0  0
 23 51  1  0  0  0
 24 25  1  0  0  0
 24 26  2  0  0  0
 25 52  1  0  0  0
 25 53  1  0  0  0
 28 29  1  0  0  0
 28 32  1  0  0  0
 29 30  1  0  0  0
 30 31  1  0  0  0
 30 54  1  0  0  0
 30 55  1  0  0  0
 31 32  1  0  0  0
 31 56  1  0  0  0
 31 57  1  0  0  0
 32 33  1  0  0  0
 33 34  1  0  0  0
 33 35  2  0  0  0
 34 36  1  0  0  0
 34 58  1  0  0  0
 34 59  1  0  0  0
 36 37  1  0  0  0
 36 38  1  0  0  0
 36 66  1  0  0  0
 37 60  1  0  0  0
 37 61  1  0  0  0
 37 62  1  0  0  0
 38 63  1  0  0  0
 38 64  1  0  0  0
 38 65  1  0  0  0
M  CHG  1  36   1
M  END
> <chembl_id>
CHEMBL461876

> <chembl_pref_name>
None

> <s_m_source_file>
sdf/inactives_sanitized.sdf

> <i_m_source_file_index>
237

> <i_lp_mmshare_version>
49012

> <i_m_ct_stereo_status>
1

> <i_f3d_flags>
0

> <s_epik_input>
W05IMl1DKD1PKWMxYyhGKVtjSF1bY0hdW2NIXWMxW05IXWMybmMobmMoYzIzKVtuSF1bY0hdW2NIXTMpW05IXWMoW2NIXTQpYyhPW0NIM10pW2NIXWMoYzQ1KVtDSDJdW0NIMl1ONUMoPU8pW0NIMl1OKFtDSDNdKVtDSDNd

> <s_epik_cmdline>
J2VwaWtfcHl0aG9uJywgJy1waHQnLCAnMC41JywgJy1waCcsICc3LjUnLCAnLW50JywgJy1tYScsICcyMDAnLCAnLWltYWUnLCAnPGluZmlsZS5tYWU+JywgJy1vbWFlJywgJzxvdXRmaWxlLm1hZT4n

> <r_epik_Ionization_Penalty>
  0.1338

> <r_epik_Ionization_Penalty_Charging>
  0.1337

> <r_epik_Ionization_Penalty_Neutral>
  0.0001

> <r_epik_State_Penalty>
  0.1231

> <r_epik_Charging_Adjusted_Penalty>
0.256861639774323

> <i_epik_Tot_Q>
1

> <i_epik_Tot_abs_Q>
1

> <s_lp_Force_Field>
OPLS3e

> <r_lp_Energy>
56.499696

> <b_lp_Chiralities_Consistent>
1

> <s_lp_Variant>
sdf/inactives_sanitized.sdf:237-1

$$$$
sdf/inactives_sanitized.sdf:238
                    3D
 Schrodinger Suite 2020-1.
 42 44  0  0  1  0            999 V2000
   -0.4175    1.9958   -0.2603 O   0  0  0  0  0  0
    3.0945    2.5532   -3.9527 O   0  0  0  0  0  0
    0.0232   -0.2148   -0.0095 N   0  0  0  0  0  0
   -9.2964   -0.8127    0.1849 N   0  0  0  0  0  0
   -5.0614   -0.0051    0.0171 C   0  0  0  0  0  0
   -2.2936    0.5250   -0.0861 C   0  0  0  0  0  0
   -6.5248   -0.2849    0.0742 C   0  0  0  0  0  0
   -0.8135    0.8342   -0.1404 C   0  0  0  0  0  0
   -4.5666    1.2694    0.3147 C   0  0  0  0  0  0
   -4.1549   -1.0108   -0.3365 C   0  0  0  0  0  0
   -3.2009    1.5333    0.2614 C   0  0  0  0  0  0
   -2.7878   -0.7520   -0.3894 C   0  0  0  0  0  0
    2.0414   -0.0272   -1.4734 C   0  0  0  0  0  0
   -7.0127   -1.4932    0.5961 C   0  0  0  0  0  0
   -7.4608    0.6520   -0.3915 C   0  0  0  0  0  0
    1.4840   -0.1457   -0.0597 C   0  0  0  0  0  0
    2.8383    1.3517   -3.3207 C   0  0  0  0  0  0
    2.2920    1.2312   -2.0309 C   0  0  0  0  0  0
    2.3757   -1.1770   -2.1944 C   0  0  0  0  0  0
   -8.3903   -1.7167    0.6334 C   0  0  0  0  0  0
   -8.8228    0.3539   -0.3193 C   0  0  0  0  0  0
    3.1515    0.1886   -4.0281 C   0  0  0  0  0  0
    2.9259   -1.0689   -3.4701 C   0  0  0  0  0  0
    2.7632    3.7687   -3.2896 C   0  0  0  0  0  0
   -0.3760   -1.1408    0.0364 H   0  0  0  0  0  0
   -5.2405    2.0654    0.5965 H   0  0  0  0  0  0
   -4.5078   -2.0022   -0.5810 H   0  0  0  0  0  0
   -2.8570    2.5299    0.5002 H   0  0  0  0  0  0
   -2.1242   -1.5552   -0.6759 H   0  0  0  0  0  0
   -6.3384   -2.2480    0.9742 H   0  0  0  0  0  0
   -7.1417    1.5959   -0.8088 H   0  0  0  0  0  0
    1.8479    0.6848    0.5493 H   0  0  0  0  0  0
    1.8829   -1.0477    0.4067 H   0  0  0  0  0  0
    2.0482    2.1092   -1.4520 H   0  0  0  0  0  0
    2.2082   -2.1561   -1.7692 H   0  0  0  0  0  0
   -8.7876   -2.6383    1.0325 H   0  0  0  0  0  0
   -9.5599    1.0599   -0.6727 H   0  0  0  0  0  0
    3.5759    0.2610   -5.0189 H   0  0  0  0  0  0
    3.1794   -1.9594   -4.0263 H   0  0  0  0  0  0
    3.0057    4.6105   -3.9381 H   0  0  0  0  0  0
    3.3327    3.8879   -2.3667 H   0  0  0  0  0  0
    1.6975    3.8246   -3.0622 H   0  0  0  0  0  0
  1  8  2  0  0  0
  2 17  1  0  0  0
  2 24  1  0  0  0
  3  8  1  0  0  0
  3 16  1  0  0  0
  3 25  1  0  0  0
  4 20  2  0  0  0
  4 21  1  0  0  0
  5  7  1  0  0  0
  5  9  2  0  0  0
  5 10  1  0  0  0
  6  8  1  0  0  0
  6 11  2  0  0  0
  6 12  1  0  0  0
  7 14  2  0  0  0
  7 15  1  0  0  0
  9 11  1  0  0  0
  9 26  1  0  0  0
 10 12  2  0  0  0
 10 27  1  0  0  0
 11 28  1  0  0  0
 12 29  1  0  0  0
 13 16  1  0  0  0
 13 18  1  0  0  0
 13 19  2  0  0  0
 14 20  1  0  0  0
 14 30  1  0  0  0
 15 21  2  0  0  0
 15 31  1  0  0  0
 16 32  1  0  0  0
 16 33  1  0  0  0
 17 18  2  0  0  0
 17 22  1  0  0  0
 18 34  1  0  0  0
 19 23  1  0  0  0
 19 35  1  0  0  0
 20 36  1  0  0  0
 21 37  1  0  0  0
 22 23  2  0  0  0
 22 38  1  0  0  0
 23 39  1  0  0  0
 24 40  1  0  0  0
 24 41  1  0  0  0
 24 42  1  0  0  0
M  END
> <chembl_id>
CHEMBL2006299

> <chembl_pref_name>
None

> <s_m_source_file>
sdf/inactives_sanitized.sdf

> <i_m_source_file_index>
238

> <i_lp_mmshare_version>
49012

> <i_m_ct_stereo_status>
1

> <i_f3d_flags>
0

> <s_epik_input>
W2NIXTFbY0hdW2NIXWMoT1tDSDNdKVtjSF1jMVtDSDJdW05IXUMoPU8pYyhbY0hdW2NIXTIpW2NIXVtjSF1jMi1jM1tjSF1bY0hdbltjSF1bY0hdMw==

> <s_epik_cmdline>
J2VwaWtfcHl0aG9uJywgJy1waHQnLCAnMC41JywgJy1waCcsICc3LjUnLCAnLW50JywgJy1tYScsICcyMDAnLCAnLWltYWUnLCAnPGluZmlsZS5tYWU+JywgJy1vbWFlJywgJzxvdXRmaWxlLm1hZT4n

> <r_lp_tautomer_probability>
1

> <r_epik_Ionization_Penalty>
  0.0017

> <r_epik_Ionization_Penalty_Charging>
  0.0000

> <r_epik_Ionization_Penalty_Neutral>
  0.0017

> <r_epik_State_Penalty>
 -0.0000

> <r_epik_Charging_Adjusted_Penalty>
0

> <i_epik_Tot_Q>
0

> <i_epik_Tot_abs_Q>
0

> <s_lp_Force_Field>
OPLS3e

> <r_lp_Energy>
40.601984

> <b_lp_Chiralities_Consistent>
1

> <s_lp_Variant>
sdf/inactives_sanitized.sdf:238-1

$$$$
sdf/inactives_sanitized.sdf:239
                    3D
 Schrodinger Suite 2020-1.
 59 62  0  0  1  0            999 V2000
   -1.6986    3.5588    0.8103 O   0  0  0  0  0  0
    1.7569    4.3406    0.5786 O   0  0  0  0  0  0
    4.2753    1.4043   -2.0223 O   0  0  0  0  0  0
    7.3674    2.6317   -3.2699 O   0  0  0  0  0  0
    5.3132    3.4662   -3.2675 O   0  5  0  0  0  0
    0.1510   -0.1952   -0.1134 N   0  0  0  0  0  0
   -0.6908   -1.2446   -0.1761 N   0  0  0  0  0  0
    0.1072    2.1960    0.3293 N   0  0  0  0  0  0
   -0.5289    0.9725    0.1810 C   0  0  0  0  0  0
   -1.9046   -0.7965    0.0768 C   0  0  0  0  0  0
    1.5297   -0.3980   -0.3909 C   0  0  0  0  0  0
   -1.8575    0.5857    0.3024 C   0  0  0  0  0  0
   -3.1292   -1.7261    0.0984 C   0  0  0  0  0  0
    0.0033    5.9076    1.0686 C   0  0  0  0  0  0
   -0.4954    3.3688    0.6189 C   0  0  0  0  0  0
    0.5491    4.5640    0.7019 C   0  0  0  0  0  0
    0.3625    6.5927    2.2808 C   0  0  0  0  0  0
    2.2737    0.5675   -1.0846 C   0  0  0  0  0  0
   -0.2015    7.8857    2.5354 C   0  0  0  0  0  0
    2.1726   -1.5675    0.0401 C   0  0  0  0  0  0
    3.6353    0.3891   -1.3388 C   0  0  0  0  0  0
   -0.8828    6.5200    0.1746 C   0  0  0  0  0  0
    1.2508    6.0516    3.2593 C   0  0  0  0  0  0
   -1.0938    8.4554    1.5968 C   0  0  0  0  0  0
   -3.9558   -1.4583    1.3782 C   0  0  0  0  0  0
   -2.7352   -3.2268    0.0863 C   0  0  0  0  0  0
   -4.0035   -1.4318   -1.1407 C   0  0  0  0  0  0
    3.5294   -1.7594   -0.2115 C   0  0  0  0  0  0
    4.2591   -0.7879   -0.8941 C   0  0  0  0  0  0
   -1.4239    7.7716    0.4346 C   0  0  0  0  0  0
    0.1387    8.5786    3.7245 C   0  0  0  0  0  0
    1.5618    6.7590    4.4166 C   0  0  0  0  0  0
    1.0115    8.0126    4.6471 C   0  0  0  0  0  0
    5.6791    1.3033   -2.2702 C   0  0  0  0  0  0
    6.1488    2.5742   -2.9948 C   0  0  0  0  0  0
    1.1093    2.2001    0.2014 H   0  0  0  0  0  0
   -2.7011    1.2185    0.5343 H   0  0  0  0  0  0
    1.8024    1.4672   -1.4516 H   0  0  0  0  0  0
    1.6289   -2.3296    0.5800 H   0  0  0  0  0  0
   -1.1622    6.0246   -0.7452 H   0  0  0  0  0  0
    1.6935    5.0778    3.1135 H   0  0  0  0  0  0
   -1.5204    9.4297    1.7885 H   0  0  0  0  0  0
   -4.8341   -2.1030    1.4342 H   0  0  0  0  0  0
   -4.3093   -0.4273    1.4251 H   0  0  0  0  0  0
   -3.3639   -1.6338    2.2779 H   0  0  0  0  0  0
   -2.1069   -3.4818    0.9412 H   0  0  0  0  0  0
   -2.1750   -3.4888   -0.8126 H   0  0  0  0  0  0
   -3.6118   -3.8751    0.1210 H   0  0  0  0  0  0
   -4.9068   -2.0436   -1.1529 H   0  0  0  0  0  0
   -3.4607   -1.6294   -2.0663 H   0  0  0  0  0  0
   -4.3165   -0.3871   -1.1730 H   0  0  0  0  0  0
    4.0176   -2.6616    0.1267 H   0  0  0  0  0  0
    5.3088   -0.9666   -1.0715 H   0  0  0  0  0  0
   -2.1057    8.2175   -0.2744 H   0  0  0  0  0  0
   -0.2866    9.5538    3.9139 H   0  0  0  0  0  0
    2.2365    6.3290    5.1424 H   0  0  0  0  0  0
    1.2617    8.5501    5.5499 H   0  0  0  0  0  0
    6.2210    1.2049   -1.3276 H   0  0  0  0  0  0
    5.8835    0.4358   -2.9003 H   0  0  0  0  0  0
  1 15  2  0  0  0
  2 16  2  0  0  0
  3 21  1  0  0  0
  3 34  1  0  0  0
  4 35  2  0  0  0
  5 35  1  0  0  0
  6  7  1  0  0  0
  6  9  1  0  0  0
  6 11  1  0  0  0
  7 10  2  0  0  0
  8  9  1  0  0  0
  8 15  1  0  0  0
  8 36  1  0  0  0
  9 12  2  0  0  0
 10 12  1  0  0  0
 10 13  1  0  0  0
 11 18  2  0  0  0
 11 20  1  0  0  0
 12 37  1  0  0  0
 13 25  1  0  0  0
 13 26  1  0  0  0
 13 27  1  0  0  0
 14 16  1  0  0  0
 14 17  1  0  0  0
 14 22  2  0  0  0
 15 16  1  0  0  0
 17 19  2  0  0  0
 17 23  1  0  0  0
 18 21  1  0  0  0
 18 38  1  0  0  0
 19 24  1  0  0  0
 19 31  1  0  0  0
 20 28  2  0  0  0
 20 39  1  0  0  0
 21 29  2  0  0  0
 22 30  1  0  0  0
 22 40  1  0  0  0
 23 32  2  0  0  0
 23 41  1  0  0  0
 24 30  2  0  0  0
 24 42  1  0  0  0
 25 43  1  0  0  0
 25 44  1  0  0  0
 25 45  1  0  0  0
 26 46  1  0  0  0
 26 47  1  0  0  0
 26 48  1  0  0  0
 27 49  1  0  0  0
 27 50  1  0  0  0
 27 51  1  0  0  0
 28 29  1  0  0  0
 28 52  1  0  0  0
 29 53  1  0  0  0
 30 54  1  0  0  0
 31 33  2  0  0  0
 31 55  1  0  0  0
 32 33  1  0  0  0
 32 56  1  0  0  0
 33 57  1  0  0  0
 34 35  1  0  0  0
 34 58  1  0  0  0
 34 59  1  0  0  0
M  CHG  1   5  -1
M  END
> <chembl_id>
CHEMBL1964902

> <chembl_pref_name>
None

> <s_m_source_file>
sdf/inactives_sanitized.sdf

> <i_m_source_file_index>
239

> <i_lp_mmshare_version>
49012

> <i_m_ct_stereo_status>
1

> <i_f3d_flags>
0

> <s_epik_input>
W2NIXTFbY0hdW2NIXVtjSF1jKGMxMilbY0hdW2NIXVtjSF1jMkMoPU8pQyg9TylbTkhdYzNbY0hdYyhDKFtDSDNdKShbQ0gzXSlbQ0gzXSlubjMtYzRbY0hdYyhbY0hdW2NIXVtjSF00KU9bQ0gyXUMoPU8pW09IXQ==

> <s_epik_cmdline>
J2VwaWtfcHl0aG9uJywgJy1waHQnLCAnMC41JywgJy1waCcsICc3LjUnLCAnLW50JywgJy1tYScsICcyMDAnLCAnLWltYWUnLCAnPGluZmlsZS5tYWU+JywgJy1vbWFlJywgJzxvdXRmaWxlLm1hZT4n

> <r_lp_tautomer_probability>
1

> <r_epik_Ionization_Penalty>
  0.0000

> <r_epik_Ionization_Penalty_Charging>
  0.0000

> <r_epik_Ionization_Penalty_Neutral>
  0.0000

> <r_epik_State_Penalty>
 -0.0000

> <r_epik_Charging_Adjusted_Penalty>
2.1755544058649e-05

> <i_epik_Tot_Q>
-1

> <i_epik_Tot_abs_Q>
1

> <s_lp_Force_Field>
OPLS3e

> <r_lp_Energy>
61.107969

> <b_lp_Chiralities_Consistent>
1

> <s_lp_Variant>
sdf/inactives_sanitized.sdf:239-1

$$$$
sdf/inactives_sanitized.sdf:240
                    3D
 Schrodinger Suite 2020-1.
 29 30  0  0  1  0            999 V2000
    8.2065    0.8149   -0.8829 S   0  0  0  0  0  0
    4.8906    1.7961   -2.5522 O   0  0  0  0  0  0
    4.0040   -2.1999   -0.2444 O   0  5  0  0  0  0
   -0.0715    0.0316    0.0772 O   0  0  0  0  0  0
    7.1153    2.1041   -2.7529 N   0  0  0  0  0  0
    9.4819    2.2376   -2.7434 N   0  0  0  0  0  0
    6.4444    0.8196   -0.9926 C   0  0  0  0  0  0
    6.0334    1.5983   -2.1423 C   0  0  0  0  0  0
    4.1268    0.1340   -0.1085 C   0  0  0  0  0  0
    5.6096    0.1658   -0.1498 C   0  0  0  0  0  0
    8.3595    1.8588   -2.3114 C   0  0  0  0  0  0
    3.4123   -1.0773   -0.1478 C   0  0  0  0  0  0
    3.4138    1.3314    0.0200 C   0  0  0  0  0  0
    1.3059    0.1274    0.0257 C   0  0  0  0  0  0
    2.0164   -1.0683   -0.0855 C   0  0  0  0  0  0
    2.0219    1.3326    0.0818 C   0  0  0  0  0  0
   -0.8492    1.2209    0.1767 C   0  0  0  0  0  0
   -2.3332    0.8416    0.1853 C   0  0  0  0  0  0
    6.9845    2.6785   -3.5721 H   0  0  0  0  0  0
    9.4115    2.8243   -3.5622 H   0  0  0  0  0  0
    6.0769   -0.4047    0.6402 H   0  0  0  0  0  0
    3.9398    2.2739    0.0725 H   0  0  0  0  0  0
    1.4686   -1.9998   -0.1231 H   0  0  0  0  0  0
    1.5168    2.2820    0.1747 H   0  0  0  0  0  0
   -0.6035    1.7593    1.0937 H   0  0  0  0  0  0
   -0.6475    1.8813   -0.6687 H   0  0  0  0  0  0
   -2.9624    1.7285    0.2640 H   0  0  0  0  0  0
   -2.5680    0.1905    1.0277 H   0  0  0  0  0  0
   -2.6095    0.3173   -0.7300 H   0  0  0  0  0  0
  1  7  1  0  0  0
  1 11  1  0  0  0
  2  8  2  0  0  0
  3 12  1  0  0  0
  4 14  1  0  0  0
  4 17  1  0  0  0
  5  8  1  0  0  0
  5 11  1  0  0  0
  5 19  1  0  0  0
  6 11  2  0  0  0
  6 20  1  0  0  0
  7  8  1  0  0  0
  7 10  2  3  0  0
  9 10  1  0  0  0
  9 12  2  0  0  0
  9 13  1  0  0  0
 10 21  1  0  0  0
 12 15  1  0  0  0
 13 16  2  0  0  0
 13 22  1  0  0  0
 14 15  2  0  0  0
 14 16  1  0  0  0
 15 23  1  0  0  0
 16 24  1  0  0  0
 17 18  1  0  0  0
 17 25  1  0  0  0
 17 26  1  0  0  0
 18 27  1  0  0  0
 18 28  1  0  0  0
 18 29  1  0  0  0
M  CHG  1   3  -1
M  END
> <chembl_id>
CHEMBL1971289

> <chembl_pref_name>
None

> <s_m_source_file>
sdf/inactives_sanitized.sdf

> <i_m_source_file_index>
240

> <i_lp_mmshare_version>
49012

> <i_m_ct_stereo_status>
1

> <i_f3d_flags>
0

> <s_epik_input>
Tz1DMVtOSF1DKD1OXFtIXSkvUy9DMT1bQ0hdL2MyYyhbT0hdKVtjSF1jKFtjSF1bY0hdMilPW0NIMl1bQ0gzXQ==

> <s_epik_cmdline>
J2VwaWtfcHl0aG9uJywgJy1waHQnLCAnMC41JywgJy1waCcsICc3LjUnLCAnLW50JywgJy1tYScsICcyMDAnLCAnLWltYWUnLCAnPGluZmlsZS5tYWU+JywgJy1vbWFlJywgJzxvdXRmaWxlLm1hZT4n

> <r_epik_Ionization_Penalty>
  0.1641

> <r_epik_Ionization_Penalty_Charging>
  0.1640

> <r_epik_Ionization_Penalty_Neutral>
  0.0002

> <r_epik_State_Penalty>
  0.1533

> <r_epik_Charging_Adjusted_Penalty>
0.317301410705449

> <i_epik_Tot_Q>
-1

> <i_epik_Tot_abs_Q>
1

> <s_epik_Chemistry_Notes>
This compound has an imine and may undergo hydrolysis.

> <s_lp_Force_Field>
OPLS3e

> <r_lp_Energy>
13.89137

> <b_lp_Chiralities_Consistent>
1

> <s_lp_Variant>
sdf/inactives_sanitized.sdf:240-1

$$$$
sdf/inactives_sanitized.sdf:241
                    3D
 Schrodinger Suite 2020-1.
 35 37  0  0  1  0            999 V2000
    4.2735    3.2043    0.0499 F   0  0  0  0  0  0
    4.0137    2.6797   -2.0382 F   0  0  0  0  0  0
    5.7154    1.9339   -0.9365 F   0  0  0  0  0  0
   -5.9940   -1.6588    1.7250 F   0  0  0  0  0  0
   -0.2673    2.5756   -0.3032 O   0  0  0  0  0  0
    2.2394    1.2378   -0.3362 N   0  0  0  0  0  0
   -2.0153    1.1753    0.1977 N   0  0  0  0  0  0
   -5.5309    3.5472   -0.0625 N   0  0  0  0  0  0
    0.0324    0.3530    0.1486 N   0  0  0  0  0  0
   -4.4296    1.4315    0.4770 C   0  0  0  0  0  0
   -3.1632    1.9961    0.1071 C   0  0  0  0  0  0
   -5.5931    2.2605    0.3734 C   0  0  0  0  0  0
    3.5785    1.0200   -0.4402 C   0  0  0  0  0  0
    4.4170    2.2293   -0.8491 C   0  0  0  0  0  0
    1.4269    0.2024    0.0251 C   0  0  0  0  0  0
   -4.5986    0.0946    0.9434 C   0  0  0  0  0  0
   -0.7148    1.4656   -0.0127 C   0  0  0  0  0  0
   -3.1403    3.3252   -0.3465 C   0  0  0  0  0  0
   -6.8607    1.7400    0.7315 C   0  0  0  0  0  0
   -5.8590   -0.3868    1.2864 C   0  0  0  0  0  0
    4.1496   -0.2334   -0.1887 C   0  0  0  0  0  0
    1.9385   -1.0726    0.2885 C   0  0  0  0  0  0
   -4.3249    4.0489   -0.4107 C   0  0  0  0  0  0
   -6.9795    0.4289    1.1814 C   0  0  0  0  0  0
    3.3133   -1.2875    0.1799 C   0  0  0  0  0  0
   -2.2179    0.2198    0.4516 H   0  0  0  0  0  0
   -0.4605   -0.4909    0.4006 H   0  0  0  0  0  0
   -3.7446   -0.5600    1.0349 H   0  0  0  0  0  0
   -2.2364    3.8215   -0.6588 H   0  0  0  0  0  0
   -7.7385    2.3658    0.6533 H   0  0  0  0  0  0
    5.2143   -0.3949   -0.2746 H   0  0  0  0  0  0
    1.2887   -1.8879    0.5732 H   0  0  0  0  0  0
   -4.3186    5.0722   -0.7566 H   0  0  0  0  0  0
   -7.9510    0.0411    1.4511 H   0  0  0  0  0  0
    3.7274   -2.2648    0.3797 H   0  0  0  0  0  0
  1 14  1  0  0  0
  2 14  1  0  0  0
  3 14  1  0  0  0
  4 20  1  0  0  0
  5 17  2  0  0  0
  6 13  2  0  0  0
  6 15  1  0  0  0
  7 11  1  0  0  0
  7 17  1  0  0  0
  7 26  1  0  0  0
  8 12  2  0  0  0
  8 23  1  0  0  0
  9 15  1  0  0  0
  9 17  1  0  0  0
  9 27  1  0  0  0
 10 11  2  0  0  0
 10 12  1  0  0  0
 10 16  1  0  0  0
 11 18  1  0  0  0
 12 19  1  0  0  0
 13 14  1  0  0  0
 13 21  1  0  0  0
 15 22  2  0  0  0
 16 20  2  0  0  0
 16 28  1  0  0  0
 18 23  2  0  0  0
 18 29  1  0  0  0
 19 24  2  0  0  0
 19 30  1  0  0  0
 20 24  1  0  0  0
 21 25  2  0  0  0
 21 31  1  0  0  0
 22 25  1  0  0  0
 22 32  1  0  0  0
 23 33  1  0  0  0
 24 34  1  0  0  0
 25 35  1  0  0  0
M  END
> <chembl_id>
CHEMBL2007603

> <chembl_pref_name>
None

> <s_m_source_file>
sdf/inactives_sanitized.sdf

> <i_m_source_file_index>
241

> <i_lp_mmshare_version>
49012

> <i_m_ct_stereo_status>
1

> <i_f3d_flags>
0

> <s_epik_input>
RkMoRikoRiljMW5jKFtjSF1bY0hdW2NIXTEpW05IXUMoPU8pW05IXWMyW2NIXVtjSF1uYyhjMjMpW2NIXVtjSF1jKEYpW2NIXTM=

> <s_epik_cmdline>
J2VwaWtfcHl0aG9uJywgJy1waHQnLCAnMC41JywgJy1waCcsICc3LjUnLCAnLW50JywgJy1tYScsICcyMDAnLCAnLWltYWUnLCAnPGluZmlsZS5tYWU+JywgJy1vbWFlJywgJzxvdXRmaWxlLm1hZT4n

> <r_lp_tautomer_probability>
1

> <r_epik_Ionization_Penalty>
  0.0029

> <r_epik_Ionization_Penalty_Charging>
  0.0000

> <r_epik_Ionization_Penalty_Neutral>
  0.0029

> <r_epik_State_Penalty>
 -0.0000

> <r_epik_Charging_Adjusted_Penalty>
0

> <i_epik_Tot_Q>
0

> <i_epik_Tot_abs_Q>
0

> <s_lp_Force_Field>
OPLS3e

> <r_lp_Energy>
46.731842

> <b_lp_Chiralities_Consistent>
1

> <s_lp_Variant>
sdf/inactives_sanitized.sdf:241-1

$$$$
sdf/inactives_sanitized.sdf:242
                    3D
 Schrodinger Suite 2020-1.
 50 53  0  0  1  0            999 V2000
    1.9465   -1.1154    0.1234 O   0  0  0  0  0  0
    0.9118    0.2628   -4.5117 N   0  0  0  0  0  0
    2.0196    1.1841    0.0616 N   0  0  0  0  0  0
   -0.6969   -0.5383    1.1804 N   0  0  0  0  0  0
    5.0953    3.1672   -0.1232 N   0  0  0  0  0  0
    9.8530   -3.9336    2.5435 N   0  0  0  0  0  0
   -0.7509    1.1126   -3.3148 C   0  0  0  0  0  0
   -0.2482   -0.0786   -2.6348 C   0  0  0  0  0  0
    0.0041    1.3016   -4.5128 C   0  0  0  0  0  0
    0.7668   -0.5409   -3.4002 C   0  0  0  0  0  0
   -0.6815   -0.6574   -1.3170 C   0  0  0  0  0  0
   -0.1457    0.0519   -0.0508 C   0  0  2  0  0  0
   -1.7678    2.0583   -3.0421 C   0  0  0  0  0  0
   -0.2411    2.3677   -5.3965 C   0  0  0  0  0  0
    1.3947   -0.0138    0.0631 C   0  0  0  0  0  0
    3.3948    1.4642    0.1565 C   0  0  0  0  0  0
   -2.0227    3.1319   -3.9202 C   0  0  0  0  0  0
   -1.2625    3.2873   -5.0960 C   0  0  0  0  0  0
    5.7243    0.9539    0.6519 C   0  0  0  0  0  0
    4.3800    0.5563    0.5846 C   0  0  0  0  0  0
    3.8039    2.7580   -0.1770 C   0  0  0  0  0  0
    6.0269    2.2693    0.2833 C   0  0  0  0  0  0
    6.8141    0.0537    1.0831 C   0  0  0  0  0  0
    6.7346   -1.2841    1.2444 C   0  0  0  0  0  0
    7.8284   -2.1772    1.6763 C   0  0  0  0  0  0
    7.5122   -3.4444    2.1829 C   0  0  0  0  0  0
    9.1799   -1.8039    1.6141 C   0  0  0  0  0  0
    8.5443   -4.2860    2.6019 C   0  0  0  0  0  0
   10.1525   -2.7046    2.0533 C   0  0  0  0  0  0
    1.6130    0.0927   -5.2184 H   0  0  0  0  0  0
    1.4316    1.9961   -0.0566 H   0  0  0  0  0  0
   -0.4815    0.0426    1.9781 H   0  0  0  0  0  0
   -1.7050   -0.5754    1.1324 H   0  0  0  0  0  0
    1.3669   -1.4067   -3.1604 H   0  0  0  0  0  0
   -1.7720   -0.6310   -1.3053 H   0  0  0  0  0  0
   -0.4172   -1.7166   -1.3016 H   0  0  0  0  0  0
   -0.4661    1.0950   -0.1037 H   0  0  0  0  0  0
   -2.3610    1.9540   -2.1457 H   0  0  0  0  0  0
    0.3487    2.4811   -6.2941 H   0  0  0  0  0  0
   -2.8061    3.8389   -3.6898 H   0  0  0  0  0  0
   -1.4625    4.1115   -5.7647 H   0  0  0  0  0  0
    4.1129   -0.4425    0.8867 H   0  0  0  0  0  0
    3.0907    3.5010   -0.5048 H   0  0  0  0  0  0
    7.0441    2.6324    0.3113 H   0  0  0  0  0  0
    7.7533    0.5425    1.2982 H   0  0  0  0  0  0
    5.7995   -1.7802    1.0305 H   0  0  0  0  0  0
    6.4859   -3.7751    2.2540 H   0  0  0  0  0  0
    9.4831   -0.8421    1.2284 H   0  0  0  0  0  0
    8.3274   -5.2678    2.9966 H   0  0  0  0  0  0
   11.2000   -2.4446    2.0141 H   0  0  0  0  0  0
  1 15  2  0  0  0
  2  9  1  0  0  0
  2 10  1  0  0  0
  2 30  1  0  0  0
  3 15  1  0  0  0
  3 16  1  0  0  0
  3 31  1  0  0  0
  4 12  1  0  0  0
  4 32  1  0  0  0
  4 33  1  0  0  0
  5 21  2  0  0  0
  5 22  1  0  0  0
  6 28  2  0  0  0
  6 29  1  0  0  0
  7  8  1  0  0  0
  7  9  2  0  0  0
  7 13  1  0  0  0
  8 10  2  0  0  0
  8 11  1  0  0  0
  9 14  1  0  0  0
 10 34  1  0  0  0
 11 12  1  0  0  0
 11 35  1  0  0  0
 11 36  1  0  0  0
 12 15  1  0  0  0
 12 37  1  0  0  0
 13 17  2  0  0  0
 13 38  1  0  0  0
 14 18  2  0  0  0
 14 39  1  0  0  0
 16 20  2  0  0  0
 16 21  1  0  0  0
 17 18  1  0  0  0
 17 40  1  0  0  0
 18 41  1  0  0  0
 19 20  1  0  0  0
 19 22  2  0  0  0
 19 23  1  0  0  0
 20 42  1  0  0  0
 21 43  1  0  0  0
 22 44  1  0  0  0
 23 24  2  3  0  0
 23 45  1  0  0  0
 24 25  1  0  0  0
 24 46  1  0  0  0
 25 26  2  0  0  0
 25 27  1  0  0  0
 26 28  1  0  0  0
 26 47  1  0  0  0
 27 29  2  0  0  0
 27 48  1  0  0  0
 28 49  1  0  0  0
 29 50  1  0  0  0
M  END
> <chembl_id>
CHEMBL1983945

> <chembl_pref_name>
None

> <s_m_source_file>
sdf/inactives_sanitized.sdf

> <i_m_source_file_index>
242

> <i_lp_mmshare_version>
49012

> <i_m_ct_stereo_status>
1

> <i_f3d_flags>
0

> <s_epik_input>
W2NIXTFbY0hdW2NIXVtjSF1jKGMxMilbbkhdW2NIXWMyW0NIMl1bQ0BASF0oW05IMl0pQyg9TylbTkhdYzNbY0hdYyhbY0hdbltjSF0zKS9bQ0hdPVtDSF0vYzRbY0hdW2NIXW5bY0hdW2NIXTQ=

> <s_epik_cmdline>
J2VwaWtfcHl0aG9uJywgJy1waHQnLCAnMC41JywgJy1waCcsICc3LjUnLCAnLW50JywgJy1tYScsICcyMDAnLCAnLWltYWUnLCAnPGluZmlsZS5tYWU+JywgJy1vbWFlJywgJzxvdXRmaWxlLm1hZT4n

> <r_epik_Ionization_Penalty>
  0.2646

> <r_epik_Ionization_Penalty_Charging>
  0.0000

> <r_epik_Ionization_Penalty_Neutral>
  0.2646

> <r_epik_State_Penalty>
  0.2512

> <r_epik_Charging_Adjusted_Penalty>
0.251217423896934

> <i_epik_Tot_Q>
0

> <i_epik_Tot_abs_Q>
0

> <s_lp_Force_Field>
OPLS3e

> <r_lp_Energy>
35.167325

> <b_lp_Chiralities_Consistent>
1

> <s_lp_Variant>
sdf/inactives_sanitized.sdf:242-1

$$$$
sdf/inactives_sanitized.sdf:242
                    3D
 Schrodinger Suite 2020-1.
 51 54  0  0  1  0            999 V2000
    1.9285   -0.5498    1.1746 O   0  0  0  0  0  0
    0.0606    1.4188   -4.2999 N   0  0  0  0  0  0
    2.0357    1.0264   -0.4919 N   0  0  0  0  0  0
   -0.7426   -0.6740    1.2027 N   0  3  0  0  0  0
    5.0601    2.4881   -1.9355 N   0  0  0  0  0  0
   11.3552   -0.9890    2.9662 N   0  0  0  0  0  0
    1.1762   -0.2260   -3.3181 C   0  0  0  0  0  0
   -0.0523    0.0193   -2.5641 C   0  0  0  0  0  0
    1.2221    0.6841   -4.4176 C   0  0  0  0  0  0
   -0.6822    1.0309   -3.2040 C   0  0  0  0  0  0
   -0.5151   -0.6308   -1.2896 C   0  0  0  0  0  0
   -0.1351    0.0649    0.0446 C   0  0  2  0  0  0
    2.2681   -1.1157   -3.1767 C   0  0  0  0  0  0
    2.2925    0.7094   -5.3292 C   0  0  0  0  0  0
    1.3943    0.1494    0.3096 C   0  0  0  0  0  0
    3.4095    1.2898   -0.6290 C   0  0  0  0  0  0
    3.3494   -1.0968   -4.0811 C   0  0  0  0  0  0
    3.3629   -0.1870   -5.1563 C   0  0  0  0  0  0
    5.7752    1.0658   -0.0999 C   0  0  0  0  0  0
    4.4364    0.7432    0.1610 C   0  0  0  0  0  0
    3.7753    2.1573   -1.6613 C   0  0  0  0  0  0
    6.0320    1.9454   -1.1617 C   0  0  0  0  0  0
    6.8419    0.4722    0.7356 C   0  0  0  0  0  0
    8.1698    0.6877    0.6188 C   0  0  0  0  0  0
    9.2411    0.0926    1.4466 C   0  0  0  0  0  0
   10.5710    0.4538    1.1913 C   0  0  0  0  0  0
    8.9908   -0.8235    2.4813 C   0  0  0  0  0  0
   11.5899   -0.1037    1.9658 C   0  0  0  0  0  0
   10.0666   -1.3353    3.2098 C   0  0  0  0  0  0
   -0.2307    2.1614   -4.9199 H   0  0  0  0  0  0
    1.4556    1.5301   -1.1472 H   0  0  0  0  0  0
   -0.5197   -0.1862    2.0588 H   0  0  0  0  0  0
   -0.3673   -1.6116    1.2272 H   0  0  0  0  0  0
   -1.6197    1.4652   -2.8886 H   0  0  0  0  0  0
   -1.6009   -0.7198   -1.3541 H   0  0  0  0  0  0
   -0.1386   -1.6555   -1.2933 H   0  0  0  0  0  0
   -0.5769    1.0613    0.1013 H   0  0  0  0  0  0
    2.2780   -1.8157   -2.3544 H   0  0  0  0  0  0
    2.2969    1.4128   -6.1487 H   0  0  0  0  0  0
    4.1727   -1.7831   -3.9473 H   0  0  0  0  0  0
    4.1944   -0.1766   -5.8455 H   0  0  0  0  0  0
    4.2216    0.0685    0.9742 H   0  0  0  0  0  0
    3.0309    2.6010   -2.3074 H   0  0  0  0  0  0
    7.0361    2.2399   -1.4251 H   0  0  0  0  0  0
    6.4938   -0.1984    1.5068 H   0  0  0  0  0  0
    8.5167    1.3589   -0.1523 H   0  0  0  0  0  0
   10.8172    1.1542    0.4063 H   0  0  0  0  0  0
    7.9905   -1.1440    2.7284 H   0  0  0  0  0  0
   12.6225    0.1586    1.7879 H   0  0  0  0  0  0
    9.9019   -2.0416    4.0102 H   0  0  0  0  0  0
   -1.7444   -0.7097    1.0807 H   0  0  0  0  0  0
  1 15  2  0  0  0
  2  9  1  0  0  0
  2 10  1  0  0  0
  2 30  1  0  0  0
  3 15  1  0  0  0
  3 16  1  0  0  0
  3 31  1  0  0  0
  4 12  1  0  0  0
  4 32  1  0  0  0
  4 33  1  0  0  0
  4 51  1  0  0  0
  5 21  2  0  0  0
  5 22  1  0  0  0
  6 28  2  0  0  0
  6 29  1  0  0  0
  7  8  1  0  0  0
  7  9  2  0  0  0
  7 13  1  0  0  0
  8 10  2  0  0  0
  8 11  1  0  0  0
  9 14  1  0  0  0
 10 34  1  0  0  0
 11 12  1  0  0  0
 11 35  1  0  0  0
 11 36  1  0  0  0
 12 15  1  0  0  0
 12 37  1  0  0  0
 13 17  2  0  0  0
 13 38  1  0  0  0
 14 18  2  0  0  0
 14 39  1  0  0  0
 16 20  2  0  0  0
 16 21  1  0  0  0
 17 18  1  0  0  0
 17 40  1  0  0  0
 18 41  1  0  0  0
 19 20  1  0  0  0
 19 22  2  0  0  0
 19 23  1  0  0  0
 20 42  1  0  0  0
 21 43  1  0  0  0
 22 44  1  0  0  0
 23 24  2  3  0  0
 23 45  1  0  0  0
 24 25  1  0  0  0
 24 46  1  0  0  0
 25 26  2  0  0  0
 25 27  1  0  0  0
 26 28  1  0  0  0
 26 47  1  0  0  0
 27 29  2  0  0  0
 27 48  1  0  0  0
 28 49  1  0  0  0
 29 50  1  0  0  0
M  CHG  1   4   1
M  END
> <chembl_id>
CHEMBL1983945

> <chembl_pref_name>
None

> <s_m_source_file>
sdf/inactives_sanitized.sdf

> <i_m_source_file_index>
242

> <i_lp_mmshare_version>
49012

> <i_m_ct_stereo_status>
1

> <i_f3d_flags>
0

> <s_epik_input>
W2NIXTFbY0hdW2NIXVtjSF1jKGMxMilbbkhdW2NIXWMyW0NIMl1bQ0BASF0oW05IMl0pQyg9TylbTkhdYzNbY0hdYyhbY0hdbltjSF0zKS9bQ0hdPVtDSF0vYzRbY0hdW2NIXW5bY0hdW2NIXTQ=

> <s_epik_cmdline>
J2VwaWtfcHl0aG9uJywgJy1waHQnLCAnMC41JywgJy1waCcsICc3LjUnLCAnLW50JywgJy1tYScsICcyMDAnLCAnLWltYWUnLCAnPGluZmlsZS5tYWU+JywgJy1vbWFlJywgJzxvdXRmaWxlLm1hZT4n

> <r_epik_Ionization_Penalty>
  0.6186

> <r_epik_Ionization_Penalty_Charging>
  0.6141

> <r_epik_Ionization_Penalty_Neutral>
  0.0046

> <r_epik_State_Penalty>
  0.6295

> <r_epik_Charging_Adjusted_Penalty>
1.24361409555691

> <i_epik_Tot_Q>
1

> <i_epik_Tot_abs_Q>
1

> <s_lp_Force_Field>
OPLS3e

> <r_lp_Energy>
34.618552

> <b_lp_Chiralities_Consistent>
1

> <s_lp_Variant>
sdf/inactives_sanitized.sdf:242-2

$$$$
