sdf/inactives_sanitized.sdf:1
                    3D
 Schrodinger Suite 2020-1.
 45 48  0  0  1  0            999 V2000
   -0.0690    0.1236   -0.1033 O   0  0  0  0  0  0
   -0.8376    1.3179    0.0137 C   0  0  0  0  0  0
   -2.3146    0.9579    0.0445 C   0  0  0  0  0  0
   -3.1497    1.3184   -1.0191 C   0  0  0  0  0  0
   -5.0341    0.2978    0.0977 C   0  0  0  0  0  0
   -4.2075   -0.0632    1.1617 C   0  0  0  0  0  0
   -4.5051    0.9885   -0.9923 C   0  0  0  0  0  0
   -2.8512    0.2651    1.1374 C   0  0  0  0  0  0
    4.2091    2.6795    0.0416 C   0  0  0  0  0  0
    5.3400    2.7738    0.8582 C   0  0  0  0  0  0
    6.0797    3.9481    0.9612 C   0  0  0  0  0  0
    3.8024    3.7980   -0.6984 C   0  0  0  0  0  0
    4.5214    5.0033   -0.6257 C   0  0  0  0  0  0
    5.6658    5.0590    0.2164 C   0  0  0  0  0  0
    6.4203    6.6431    0.1719 S   0  0  0  0  0  0
    5.2184    7.2245   -0.9749 C   0  0  0  0  0  0
    4.2888    6.2421   -1.2854 C   0  0  0  0  0  0
    5.2507    8.5240   -1.4458 C   0  0  0  0  0  0
    6.4232    9.1099   -1.6537 N   0  0  0  0  0  0
    4.1015    9.1435   -1.6832 N   0  3  0  0  0  0
    3.4448    1.4022   -0.0439 C   0  0  0  0  0  0
    4.1108    0.1733   -0.1417 C   0  0  0  0  0  0
    2.0058   -1.0022   -0.2137 C   0  0  0  0  0  0
    1.3102    0.2030   -0.1136 C   0  0  0  0  0  0
    3.3982   -1.0207   -0.2269 C   0  0  0  0  0  0
    2.0421    1.4004   -0.0305 C   0  0  0  0  0  0
   -2.0620   -0.0899    2.1780 F   0  0  0  0  0  0
   -0.5878    1.8541    0.9313 H   0  0  0  0  0  0
   -0.6283    1.9843   -0.8256 H   0  0  0  0  0  0
   -2.7516    1.8526   -1.8697 H   0  0  0  0  0  0
   -6.0834    0.0427    0.1181 H   0  0  0  0  0  0
   -4.6180   -0.5974    2.0059 H   0  0  0  0  0  0
   -5.1452    1.2677   -1.8164 H   0  0  0  0  0  0
    5.6556    1.9172    1.4366 H   0  0  0  0  0  0
    6.9492    3.9959    1.6007 H   0  0  0  0  0  0
    2.9339    3.7316   -1.3378 H   0  0  0  0  0  0
    3.4667    6.3983   -1.9681 H   0  0  0  0  0  0
    6.4592   10.0593   -1.9946 H   0  0  0  0  0  0
    7.2756    8.6023   -1.4661 H   0  0  0  0  0  0
    4.1028   10.0922   -2.0278 H   0  0  0  0  0  0
    5.1906    0.1374   -0.1599 H   0  0  0  0  0  0
    1.4612   -1.9328   -0.2811 H   0  0  0  0  0  0
    3.9250   -1.9604   -0.3048 H   0  0  0  0  0  0
    1.5270    2.3456    0.0518 H   0  0  0  0  0  0
    3.2297    8.6657   -1.5079 H   0  0  0  0  0  0
  1  2  1  0  0  0
  1 24  1  0  0  0
  2  3  1  0  0  0
  2 28  1  0  0  0
  2 29  1  0  0  0
  3  8  2  0  0  0
  3  4  1  0  0  0
  4  7  2  0  0  0
  4 30  1  0  0  0
  5  7  1  0  0  0
  5  6  2  0  0  0
  5 31  1  0  0  0
  6  8  1  0  0  0
  6 32  1  0  0  0
  7 33  1  0  0  0
  8 27  1  0  0  0
  9 10  2  0  0  0
  9 21  1  0  0  0
  9 12  1  0  0  0
 10 11  1  0  0  0
 10 34  1  0  0  0
 11 14  2  0  0  0
 11 35  1  0  0  0
 12 13  2  0  0  0
 12 36  1  0  0  0
 13 17  1  0  0  0
 13 14  1  0  0  0
 14 15  1  0  0  0
 15 16  1  0  0  0
 16 17  2  0  0  0
 16 18  1  0  0  0
 17 37  1  0  0  0
 18 19  1  0  0  0
 18 20  2  0  0  0
 19 38  1  0  0  0
 19 39  1  0  0  0
 20 40  1  0  0  0
 20 45  1  0  0  0
 21 22  2  0  0  0
 21 26  1  0  0  0
 22 25  1  0  0  0
 22 41  1  0  0  0
 23 24  1  0  0  0
 23 25  2  0  0  0
 23 42  1  0  0  0
 24 26  2  0  0  0
 25 43  1  0  0  0
 26 44  1  0  0  0
M  CHG  1  20   1
M  END
> <chembl_id>
CHEMBL608739

> <chembl_pref_name>
None

> <s_m_source_file>
sdf/inactives_sanitized.sdf

> <i_m_source_file_index>
1

> <i_lp_mmshare_version>
49012

> <i_m_ct_stereo_status>
1

> <i_f3d_flags>
0

> <s_epik_input>
RmMxW2NIXVtjSF1bY0hdW2NIXWMxW0NIMl1PYyhbY0hdMilbY0hdW2NIXVtjSF1jMi1jKFtjSF0zKVtjSF1bY0hdYyhjMzQpc2MoW2NIXTQpL0MoW05IMl0pPU4vW0hd

> <s_epik_cmdline>
J2VwaWtfcHl0aG9uJywgJy1waHQnLCAnMC41JywgJy1waCcsICc3LjUnLCAnLW50JywgJy1tYScsICcyMDAnLCAnLWltYWUnLCAnPGluZmlsZS5tYWU+JywgJy1vbWFlJywgJzxvdXRmaWxlLm1hZT4n

> <r_lp_tautomer_probability>
1

> <r_epik_Ionization_Penalty>
  0.0095

> <r_epik_Ionization_Penalty_Charging>
  0.0095

> <r_epik_Ionization_Penalty_Neutral>
  0.0000

> <r_epik_State_Penalty>
 -0.0000

> <r_epik_Charging_Adjusted_Penalty>
0.00945881282357717

> <i_epik_Tot_Q>
1

> <i_epik_Tot_abs_Q>
1

> <s_epik_Chemistry_Notes>
This compound has an imine and may undergo hydrolysis.

> <s_lp_Force_Field>
OPLS3e

> <r_lp_Energy>
32.725665

> <b_lp_Chiralities_Consistent>
1

> <s_lp_Variant>
sdf/inactives_sanitized.sdf:1-1

$$$$
sdf/inactives_sanitized.sdf:2
                    3D
 Schrodinger Suite 2020-1.
 68 72  0  0  1  0            999 V2000
   -4.6596    0.0759   -0.7000 C   0  0  0  0  0  0
   -5.1905    1.4204   -0.1471 C   0  0  2  0  0  0
   -4.3241    1.8504    1.0660 C   0  0  0  0  0  0
   -2.8290    1.9501    0.6901 C   0  0  0  0  0  0
   -2.3431    0.5717    0.1648 C   0  0  1  0  0  0
   -3.1676    0.1688   -1.0879 C   0  0  0  0  0  0
   -6.6976    1.3230    0.1784 C   0  0  0  0  0  0
   -0.8595    0.6904   -0.2450 C   0  0  0  0  0  0
   -0.0005   -0.1374    0.3781 N   0  0  0  0  0  0
   -0.5081    1.5037   -1.1026 O   0  0  0  0  0  0
    1.4475   -0.2341    0.1346 C   0  0  2  0  0  0
    1.8700   -0.6876   -1.2736 C   0  0  0  0  0  0
    2.1338   -1.0817    1.2357 C   0  0  0  0  0  0
    1.6942   -2.5431    1.2786 C   0  0  0  0  0  0
    0.6038   -2.9223    2.0670 C   0  0  0  0  0  0
    0.1970   -4.2534    2.0976 C   0  0  0  0  0  0
    0.8834   -5.2019    1.3423 C   0  0  0  0  0  0
    1.9729   -4.8317    0.5567 C   0  0  0  0  0  0
    2.3803   -3.5008    0.5260 C   0  0  0  0  0  0
   -7.2431    2.6738    0.6556 N   0  3  0  0  0  0
    0.9861   -1.4343   -1.9919 N   0  0  0  0  0  0
    1.3502   -1.8332   -3.2344 C   0  0  0  0  0  0
    2.5844   -1.5147   -3.8008 C   0  0  0  0  0  0
    3.4996   -0.7454   -3.0675 C   0  0  0  0  0  0
    3.1208   -0.3219   -1.7845 C   0  0  0  0  0  0
    4.8358   -0.3978   -3.6289 C   0  0  0  0  0  0
    5.9763   -0.4713   -2.8134 C   0  0  0  0  0  0
    6.1846    0.3211   -5.5397 C   0  0  0  0  0  0
    4.9553   -0.0050   -4.9689 C   0  0  0  0  0  0
    7.3341    0.2489   -4.7405 C   0  0  0  0  0  0
    7.2088   -0.1463   -3.3877 C   0  0  0  0  0  0
    8.4925   -0.1200   -2.8786 N   0  0  0  0  0  0
    9.3950    0.2573   -3.8032 N   0  0  0  0  0  0
    8.7348    0.4803   -4.9098 C   0  0  0  0  0  0
    9.3335    0.8825   -6.0693 N   0  0  0  0  0  0
   -4.8135   -0.7180    0.0335 H   0  0  0  0  0  0
   -5.2510   -0.2276   -1.5654 H   0  0  0  0  0  0
   -5.0504    2.1638   -0.9351 H   0  0  0  0  0  0
   -4.6709    2.8046    1.4641 H   0  0  0  0  0  0
   -4.4595    1.1430    1.8865 H   0  0  0  0  0  0
   -2.7587    2.7281   -0.0735 H   0  0  0  0  0  0
   -2.2989    2.2369    1.6002 H   0  0  0  0  0  0
   -2.4110   -0.1927    0.9426 H   0  0  0  0  0  0
   -2.8792   -0.8191   -1.4520 H   0  0  0  0  0  0
   -3.1045    0.9174   -1.8810 H   0  0  0  0  0  0
   -7.3065    1.0858   -0.6949 H   0  0  0  0  0  0
   -6.9206    0.6282    0.9893 H   0  0  0  0  0  0
   -0.3611   -0.7406    1.1027 H   0  0  0  0  0  0
    1.8356    0.7798    0.2590 H   0  0  0  0  0  0
    3.2179   -1.0467    1.1138 H   0  0  0  0  0  0
    1.9523   -0.6343    2.2147 H   0  0  0  0  0  0
    0.0687   -2.1877    2.6513 H   0  0  0  0  0  0
   -0.6472   -4.5489    2.7032 H   0  0  0  0  0  0
    0.5676   -6.2345    1.3658 H   0  0  0  0  0  0
    2.4983   -5.5732   -0.0270 H   0  0  0  0  0  0
    3.2221   -3.2141   -0.0880 H   0  0  0  0  0  0
   -8.2299    2.5985    0.8583 H   0  0  0  0  0  0
   -7.1103    3.3740   -0.0601 H   0  0  0  0  0  0
    0.6301   -2.4258   -3.7792 H   0  0  0  0  0  0
    2.8256   -1.8697   -4.7922 H   0  0  0  0  0  0
    3.7914    0.2784   -1.1865 H   0  0  0  0  0  0
    5.9064   -0.7783   -1.7798 H   0  0  0  0  0  0
    6.2455    0.6214   -6.5755 H   0  0  0  0  0  0
    4.0725    0.0558   -5.5892 H   0  0  0  0  0  0
    8.7895   -0.3448   -1.9399 H   0  0  0  0  0  0
    8.7927    1.1826   -6.8675 H   0  0  0  0  0  0
   10.3341    1.0074   -6.1274 H   0  0  0  0  0  0
   -6.7609    2.9688    1.4926 H   0  0  0  0  0  0
  1  2  1  0  0  0
  1  6  1  0  0  0
  1 36  1  0  0  0
  1 37  1  0  0  0
  2  3  1  0  0  0
  2  7  1  0  0  0
  2 38  1  0  0  0
  3  4  1  0  0  0
  3 39  1  0  0  0
  3 40  1  0  0  0
  4  5  1  0  0  0
  4 41  1  0  0  0
  4 42  1  0  0  0
  5  6  1  0  0  0
  5  8  1  0  0  0
  5 43  1  0  0  0
  6 44  1  0  0  0
  6 45  1  0  0  0
  7 20  1  0  0  0
  7 46  1  0  0  0
  7 47  1  0  0  0
  8  9  1  0  0  0
  8 10  2  0  0  0
  9 11  1  0  0  0
  9 48  1  0  0  0
 11 12  1  0  0  0
 11 13  1  0  0  0
 11 49  1  0  0  0
 12 21  2  0  0  0
 12 25  1  0  0  0
 13 14  1  0  0  0
 13 50  1  0  0  0
 13 51  1  0  0  0
 14 15  2  0  0  0
 14 19  1  0  0  0
 15 16  1  0  0  0
 15 52  1  0  0  0
 16 17  2  0  0  0
 16 53  1  0  0  0
 17 18  1  0  0  0
 17 54  1  0  0  0
 18 19  2  0  0  0
 18 55  1  0  0  0
 19 56  1  0  0  0
 20 57  1  0  0  0
 20 58  1  0  0  0
 20 68  1  0  0  0
 21 22  1  0  0  0
 22 23  2  0  0  0
 22 59  1  0  0  0
 23 24  1  0  0  0
 23 60  1  0  0  0
 24 25  2  0  0  0
 24 26  1  0  0  0
 25 61  1  0  0  0
 26 27  2  0  0  0
 26 29  1  0  0  0
 27 31  1  0  0  0
 27 62  1  0  0  0
 28 30  1  0  0  0
 28 29  2  0  0  0
 28 63  1  0  0  0
 29 64  1  0  0  0
 30 31  2  0  0  0
 30 34  1  0  0  0
 31 32  1  0  0  0
 32 33  1  0  0  0
 32 65  1  0  0  0
 33 34  2  0  0  0
 34 35  1  0  0  0
 35 66  1  0  0  0
 35 67  1  0  0  0
M  CHG  1  20   1
M  END
> <chembl_id>
CHEMBL3393386

> <chembl_pref_name>
None

> <i_m_ct_stereo_status>
1

> <s_m_source_file>
sdf/inactives_sanitized.sdf

> <i_m_source_file_index>
2

> <i_lp_mmshare_version>
49012

> <i_f3d_flags>
0

> <s_epik_input>
W05IMl1bQ0gyXVtDQEBIXTFbQ0gyXVtDSDJdW0NASF0oW0NIMl1bQ0gyXTEpQyg9TylbTkhdW0NAQEhdKFtDSDJdYzJbY0hdW2NIXVtjSF1bY0hdW2NIXTIpYzNuW2NIXVtjSF1jKFtjSF0zKS1jKFtjSF1bY0hdNClbY0hdYyhjNDUpW25IXW5jNVtOSDJd

> <s_epik_cmdline>
J2VwaWtfcHl0aG9uJywgJy1waHQnLCAnMC41JywgJy1waCcsICc3LjUnLCAnLW50JywgJy1tYScsICcyMDAnLCAnLWltYWUnLCAnPGluZmlsZS5tYWU+JywgJy1vbWFlJywgJzxvdXRmaWxlLm1hZT4n

> <r_lp_tautomer_probability>
1

> <r_epik_Ionization_Penalty>
  0.0073

> <r_epik_Ionization_Penalty_Charging>
  0.0011

> <r_epik_Ionization_Penalty_Neutral>
  0.0062

> <r_epik_State_Penalty>
 -0.0000

> <r_epik_Charging_Adjusted_Penalty>
0.00108323456606225

> <i_epik_Tot_Q>
1

> <i_epik_Tot_abs_Q>
1

> <s_lp_Force_Field>
OPLS3e

> <r_lp_Energy>
51.151378

> <b_lp_Chiralities_Consistent>
1

> <s_lp_Variant>
sdf/inactives_sanitized.sdf:2-1

$$$$
sdf/inactives_sanitized.sdf:3
                    3D
 Schrodinger Suite 2020-1.
 67 71  0  0  1  0            999 V2000
    1.7354   -2.0872   -4.5877 C   0  0  0  0  0  0
    2.6323   -2.4456   -5.6043 C   0  0  0  0  0  0
    2.3187   -3.4507   -6.5144 C   0  0  0  0  0  0
    1.1012   -4.1253   -6.4251 C   0  0  0  0  0  0
    0.1901   -3.7711   -5.4208 C   0  0  0  0  0  0
    0.5099   -2.7628   -4.5152 C   0  0  0  0  0  0
    0.8717   -5.1238   -7.3870 N   0  0  0  0  0  0
   -0.1434   -6.0738   -7.4504 C   0  0  0  0  0  0
    0.0354   -6.8108   -8.5655 O   0  0  0  0  0  0
   -1.0575   -6.2469   -6.6412 O   0  0  0  0  0  0
   -0.8569   -7.8677   -8.8916 C   0  0  0  0  0  0
   -6.9299    2.0587    0.1943 C   0  0  0  0  0  0
   -7.3939    0.7504    0.2968 C   0  0  0  0  0  0
   -6.4990   -0.3116    0.2099 C   0  0  0  0  0  0
   -5.1414   -0.0638    0.0140 C   0  0  0  0  0  0
   -4.6501    1.2465   -0.1007 C   0  0  0  0  0  0
   -5.5651    2.3198    0.0056 C   0  0  0  0  0  0
   -5.1531    3.6715   -0.0466 N   0  0  0  0  0  0
   -4.1492    4.3071    0.6484 C   0  0  0  0  0  0
   -4.0883    5.5749    0.3303 N   0  0  0  0  0  0
   -5.1022    5.7616   -0.6042 N   0  0  0  0  0  0
   -5.7669    4.5705   -0.8311 N   0  0  0  0  0  0
   -7.0708   -1.9353    0.3361 Cl  0  0  0  0  0  0
   -3.2025    1.4684   -0.3411 C   0  0  0  0  0  0
   -2.2019    0.6235   -0.0087 C   0  0  0  0  0  0
   -0.8151    0.9097   -0.2960 C   0  0  0  0  0  0
    0.0250   -0.0365    0.1645 N   0  0  0  0  0  0
   -0.4379    1.9146   -0.9033 O   0  0  0  0  0  0
    1.4884   -0.0167    0.0469 C   0  0  2  0  0  0
    1.9834   -0.0013   -1.4112 C   0  0  0  0  0  0
    2.1083   -1.1855    0.8497 C   0  0  0  0  0  0
    3.6299   -1.1328    0.9280 C   0  0  0  0  0  0
    4.4017   -1.9511    0.0982 C   0  0  0  0  0  0
    5.7913   -1.8870    0.1574 C   0  0  0  0  0  0
    6.4040   -1.0060    1.0461 C   0  0  0  0  0  0
    5.6402   -0.1887    1.8768 C   0  0  0  0  0  0
    4.2507   -0.2524    1.8183 C   0  0  0  0  0  0
    2.8367    0.9926   -1.9202 C   0  0  0  0  0  0
    3.2720    0.9691   -3.2063 N   0  0  0  0  0  0
    2.8994   -0.0195   -4.0336 N   0  0  0  0  0  0
    2.0733   -1.0136   -3.6022 C   0  0  0  0  0  0
    1.5991   -1.0238   -2.2859 C   0  0  0  0  0  0
    3.3997    2.3029   -0.9414 Cl  0  0  0  0  0  0
    3.5881   -1.9494   -5.6929 H   0  0  0  0  0  0
    3.0332   -3.7035   -7.2852 H   0  0  0  0  0  0
   -0.7717   -4.2489   -5.3249 H   0  0  0  0  0  0
   -0.2152   -2.5047   -3.7574 H   0  0  0  0  0  0
    1.5627   -5.1741   -8.1212 H   0  0  0  0  0  0
   -0.5547   -8.3300   -9.8312 H   0  0  0  0  0  0
   -1.8769   -7.4983   -9.0080 H   0  0  0  0  0  0
   -0.8527   -8.6371   -8.1181 H   0  0  0  0  0  0
   -7.6383    2.8709    0.2765 H   0  0  0  0  0  0
   -8.4473    0.5639    0.4472 H   0  0  0  0  0  0
   -4.4743   -0.9092   -0.0690 H   0  0  0  0  0  0
   -3.5307    3.7721    1.3541 H   0  0  0  0  0  0
   -2.9557    2.3892   -0.8522 H   0  0  0  0  0  0
   -2.4085   -0.3082    0.4999 H   0  0  0  0  0  0
   -0.3621   -0.7831    0.7230 H   0  0  0  0  0  0
    1.8018    0.8966    0.5532 H   0  0  0  0  0  0
    1.7211   -1.1805    1.8704 H   0  0  0  0  0  0
    1.7896   -2.1456    0.4393 H   0  0  0  0  0  0
    3.9285   -2.6298   -0.5965 H   0  0  0  0  0  0
    6.3913   -2.5154   -0.4841 H   0  0  0  0  0  0
    7.4820   -0.9550    1.0910 H   0  0  0  0  0  0
    6.1237    0.4929    2.5612 H   0  0  0  0  0  0
    3.6592    0.3866    2.4577 H   0  0  0  0  0  0
    0.9575   -1.8189   -1.9353 H   0  0  0  0  0  0
  1  2  2  0  0  0
  1  6  1  0  0  0
  1 41  1  0  0  0
  2  3  1  0  0  0
  2 44  1  0  0  0
  3  4  2  0  0  0
  3 45  1  0  0  0
  4  5  1  0  0  0
  4  7  1  0  0  0
  5  6  2  0  0  0
  5 46  1  0  0  0
  6 47  1  0  0  0
  7  8  1  0  0  0
  7 48  1  0  0  0
  8  9  1  0  0  0
  8 10  2  0  0  0
  9 11  1  0  0  0
 11 49  1  0  0  0
 11 50  1  0  0  0
 11 51  1  0  0  0
 12 13  2  0  0  0
 12 17  1  0  0  0
 12 52  1  0  0  0
 13 14  1  0  0  0
 13 53  1  0  0  0
 14 15  2  0  0  0
 14 23  1  0  0  0
 15 16  1  0  0  0
 15 54  1  0  0  0
 16 17  2  0  0  0
 16 24  1  0  0  0
 17 18  1  0  0  0
 18 19  1  0  0  0
 18 22  1  0  0  0
 19 20  2  0  0  0
 19 55  1  0  0  0
 20 21  1  0  0  0
 21 22  2  0  0  0
 24 25  2  0  0  0
 24 56  1  0  0  0
 25 26  1  0  0  0
 25 57  1  0  0  0
 26 27  1  0  0  0
 26 28  2  0  0  0
 27 29  1  0  0  0
 27 58  1  0  0  0
 29 30  1  0  0  0
 29 31  1  0  0  0
 29 59  1  0  0  0
 30 38  2  0  0  0
 30 42  1  0  0  0
 31 32  1  0  0  0
 31 60  1  0  0  0
 31 61  1  0  0  0
 32 33  2  0  0  0
 32 37  1  0  0  0
 33 34  1  0  0  0
 33 62  1  0  0  0
 34 35  2  0  0  0
 34 63  1  0  0  0
 35 36  1  0  0  0
 35 64  1  0  0  0
 36 37  2  0  0  0
 36 65  1  0  0  0
 37 66  1  0  0  0
 38 39  1  0  0  0
 38 43  1  0  0  0
 39 40  2  0  0  0
 40 41  1  0  0  0
 41 42  2  0  0  0
 42 67  1  0  0  0
M  END
> <chembl_id>
CHEMBL4226897

> <chembl_pref_name>
None

> <i_m_ct_stereo_status>
1

> <s_m_source_file>
sdf/inactives_sanitized.sdf

> <i_m_source_file_index>
3

> <i_lp_mmshare_version>
49012

> <i_f3d_flags>
0

> <s_epik_input>
W0NIM11PQyg9TylbTkhdYyhbY0hdW2NIXTEpW2NIXVtjSF1jMS1jKFtjSF0yKW5uYyhDbCljMltDQEhdKFtDSDJdYzNbY0hdW2NIXVtjSF1bY0hdW2NIXTMpW05IXUMoPU8pXFtDSF09W0NIXVxjKFtjSF00KWMoW2NIXVtjSF1jNENsKS1uNVtjSF1ubm41

> <s_epik_cmdline>
J2VwaWtfcHl0aG9uJywgJy1waHQnLCAnMC41JywgJy1waCcsICc3LjUnLCAnLW50JywgJy1tYScsICcyMDAnLCAnLWltYWUnLCAnPGluZmlsZS5tYWU+JywgJy1vbWFlJywgJzxvdXRmaWxlLm1hZT4n

> <r_lp_tautomer_probability>
1

> <r_epik_Ionization_Penalty>
  0.0000

> <r_epik_Ionization_Penalty_Charging>
  0.0000

> <r_epik_Ionization_Penalty_Neutral>
  0.0000

> <r_epik_State_Penalty>
 -0.0000

> <r_epik_Charging_Adjusted_Penalty>
0

> <i_epik_Tot_Q>
0

> <i_epik_Tot_abs_Q>
0

> <s_epik_Chemistry_Notes>
This compound has an ester and may undergo hydrolysis at high or low pH.

> <s_lp_Force_Field>
OPLS3e

> <r_lp_Energy>
57.974204

> <b_lp_Chiralities_Consistent>
1

> <s_lp_Variant>
sdf/inactives_sanitized.sdf:3-1

$$$$
sdf/inactives_sanitized.sdf:4
                    3D
 Schrodinger Suite 2020-1.
 68 73  0  0  1  0            999 V2000
    1.9294    0.0259   -1.5594 C   0  0  0  0  0  0
   -6.1310    2.3622    0.0552 N   0  0  0  0  0  0
   -8.2941    2.5346   -0.5443 N   0  0  0  0  0  0
    2.7745    1.0855   -2.0344 C   0  0  0  0  0  0
   -0.0617   -0.1634   -0.0021 C   0  0  0  0  0  0
   -8.1270    3.2005    0.5908 C   0  0  0  0  0  0
    1.4793   -0.1131   -0.1018 C   0  0  1  0  0  0
    1.6262   -0.8507   -2.5881 C   0  0  0  0  0  0
   -6.7951    3.1161    0.9925 C   0  0  0  0  0  0
   -7.1170    2.0443   -0.8487 C   0  0  0  0  0  0
    2.3041   -0.4426   -4.1366 S   0  0  0  0  0  0
    3.3359    2.1765   -1.3406 C   0  0  0  0  0  0
    4.7157    4.2441   -1.2626 C   0  0  0  0  0  0
    4.1460    3.1142   -1.9964 C   0  0  0  0  0  0
   -0.6854    1.0350   -0.0456 N   0  0  0  0  0  0
    3.0654    0.9667   -3.4270 C   0  0  0  0  0  0
   -4.7672    2.0050    0.0262 C   0  0  0  0  0  0
    5.9460    4.6506   -1.5548 N   0  3  0  0  0  0
    2.1741   -1.3196    0.5879 C   0  0  0  0  0  0
   -0.6399   -1.2469    0.1047 O   0  0  0  0  0  0
   -9.2559    3.9147    1.2756 C   0  0  0  0  0  0
    4.3997    2.9549   -3.3618 C   0  0  0  0  0  0
    3.8738    1.8954   -4.0923 C   0  0  0  0  0  0
   -4.3809    0.7621   -0.4853 C   0  0  0  0  0  0
   -3.8017    2.8976    0.5025 C   0  0  0  0  0  0
   -2.0657    1.3004   -0.0275 C   0  0  0  0  0  0
    3.9865    4.8356   -0.3233 N   0  0  0  0  0  0
   -2.4551    2.5466    0.4678 C   0  0  0  0  0  0
   -3.0342    0.4105   -0.5157 C   0  0  0  0  0  0
    3.6929   -1.1923    0.6377 C   0  0  0  0  0  0
   -9.0485    4.5009    2.5310 C   0  0  0  0  0  0
  -10.5221    4.0080    0.6802 C   0  0  0  0  0  0
    4.4830   -1.8654   -0.2986 C   0  0  0  0  0  0
    4.2916   -0.3864    1.6098 C   0  0  0  0  0  0
  -10.0849    5.1681    3.1787 C   0  0  0  0  0  0
  -11.5589    4.6756    1.3269 C   0  0  0  0  0  0
    5.6770   -0.2528    1.6448 C   0  0  0  0  0  0
    5.8683   -1.7311   -0.2634 C   0  0  0  0  0  0
  -11.3357    5.2533    2.5735 C   0  0  0  0  0  0
    6.4589   -0.9255    0.7081 C   0  0  0  0  0  0
    1.7723    0.7682    0.4697 H   0  0  0  0  0  0
    1.0193   -1.7411   -2.5065 H   0  0  0  0  0  0
   -6.2745    3.5166    1.8497 H   0  0  0  0  0  0
   -6.8836    1.4501   -1.7200 H   0  0  0  0  0  0
    3.1547    2.2973   -0.2841 H   0  0  0  0  0  0
   -0.0967    1.8540   -0.0154 H   0  0  0  0  0  0
    6.4735    4.1746   -2.2721 H   0  0  0  0  0  0
    1.8138   -1.4262    1.6132 H   0  0  0  0  0  0
    1.9028   -2.2575    0.0987 H   0  0  0  0  0  0
    5.0168    3.6772   -3.8755 H   0  0  0  0  0  0
    4.0864    1.7964   -5.1471 H   0  0  0  0  0  0
   -5.1156    0.0644   -0.8605 H   0  0  0  0  0  0
   -4.0847    3.8656    0.8907 H   0  0  0  0  0  0
    4.3648    5.6178    0.1908 H   0  0  0  0  0  0
    3.0521    4.5039   -0.1328 H   0  0  0  0  0  0
   -1.7183    3.2479    0.8336 H   0  0  0  0  0  0
   -2.7628   -0.5460   -0.9358 H   0  0  0  0  0  0
   -8.0854    4.4434    3.0159 H   0  0  0  0  0  0
  -10.7113    3.5663   -0.2873 H   0  0  0  0  0  0
    4.0258   -2.4857   -1.0561 H   0  0  0  0  0  0
    3.6854    0.1383    2.3340 H   0  0  0  0  0  0
   -9.9188    5.6179    4.1465 H   0  0  0  0  0  0
  -12.5317    4.7456    0.8628 H   0  0  0  0  0  0
    6.1434    0.3691    2.3946 H   0  0  0  0  0  0
    6.4820   -2.2489   -0.9858 H   0  0  0  0  0  0
  -12.1394    5.7718    3.0754 H   0  0  0  0  0  0
    7.5336   -0.8222    0.7358 H   0  0  0  0  0  0
    6.3511    5.4302   -1.0575 H   0  0  0  0  0  0
  1  4  1  0  0  0
  1  7  1  0  0  0
  1  8  2  0  0  0
  2 17  1  0  0  0
  2  9  1  0  0  0
  2 10  1  0  0  0
  3 10  2  0  0  0
  3  6  1  0  0  0
  4 12  2  0  0  0
  4 16  1  0  0  0
  5  7  1  0  0  0
  5 15  1  0  0  0
  5 20  2  0  0  0
  6  9  2  0  0  0
  6 21  1  0  0  0
  7 19  1  0  0  0
  7 41  1  0  0  0
  8 11  1  0  0  0
  8 42  1  0  0  0
  9 43  1  0  0  0
 10 44  1  0  0  0
 11 16  1  0  0  0
 12 14  1  0  0  0
 12 45  1  0  0  0
 13 14  1  0  0  0
 13 18  2  0  0  0
 13 27  1  0  0  0
 14 22  2  0  0  0
 15 26  1  0  0  0
 15 46  1  0  0  0
 16 23  2  0  0  0
 17 25  2  0  0  0
 17 24  1  0  0  0
 18 47  1  0  0  0
 18 68  1  0  0  0
 19 30  1  0  0  0
 19 48  1  0  0  0
 19 49  1  0  0  0
 21 31  2  0  0  0
 21 32  1  0  0  0
 22 23  1  0  0  0
 22 50  1  0  0  0
 23 51  1  0  0  0
 24 29  2  0  0  0
 24 52  1  0  0  0
 25 28  1  0  0  0
 25 53  1  0  0  0
 26 28  2  0  0  0
 26 29  1  0  0  0
 27 54  1  0  0  0
 27 55  1  0  0  0
 28 56  1  0  0  0
 29 57  1  0  0  0
 30 33  2  0  0  0
 30 34  1  0  0  0
 31 35  1  0  0  0
 31 58  1  0  0  0
 32 36  2  0  0  0
 32 59  1  0  0  0
 33 38  1  0  0  0
 33 60  1  0  0  0
 34 37  2  0  0  0
 34 61  1  0  0  0
 35 39  2  0  0  0
 35 62  1  0  0  0
 36 39  1  0  0  0
 36 63  1  0  0  0
 37 40  1  0  0  0
 37 64  1  0  0  0
 38 40  2  0  0  0
 38 65  1  0  0  0
 39 66  1  0  0  0
 40 67  1  0  0  0
M  CHG  1  18   1
M  END
> <chembl_id>
CHEMBL363310

> <chembl_pref_name>
None

> <s_m_source_file>
sdf/inactives_sanitized.sdf

> <i_m_source_file_index>
4

> <i_lp_mmshare_version>
49012

> <i_m_ct_stereo_status>
1

> <i_f3d_flags>
0

> <s_epik_input>
W0hdXE49QyhbTkgyXSlcYyhbY0hdMSlbY0hdW2NIXWMoYzEyKXNbY0hdYzJbQ0BIXShbQ0gyXWMzW2NIXVtjSF1bY0hdW2NIXVtjSF0zKUMoPU8pW05IXWMoW2NIXVtjSF00KVtjSF1bY0hdYzQtbjVbY0hdYyhuW2NIXTUpLWM2W2NIXVtjSF1bY0hdW2NIXVtjSF02

> <s_epik_cmdline>
J2VwaWtfcHl0aG9uJywgJy1waHQnLCAnMC41JywgJy1waCcsICc3LjUnLCAnLW50JywgJy1tYScsICcyMDAnLCAnLWltYWUnLCAnPGluZmlsZS5tYWU+JywgJy1vbWFlJywgJzxvdXRmaWxlLm1hZT4n

> <r_lp_tautomer_probability>
1

> <r_epik_Ionization_Penalty>
  0.0030

> <r_epik_Ionization_Penalty_Charging>
  0.0030

> <r_epik_Ionization_Penalty_Neutral>
  0.0000

> <r_epik_State_Penalty>
 -0.0000

> <r_epik_Charging_Adjusted_Penalty>
0.00304065159583175

> <i_epik_Tot_Q>
1

> <i_epik_Tot_abs_Q>
1

> <s_epik_Chemistry_Notes>
This compound has an imine and may undergo hydrolysis.

> <s_lp_Force_Field>
OPLS3e

> <r_lp_Energy>
52.544145

> <b_lp_Chiralities_Consistent>
1

> <s_lp_Variant>
sdf/inactives_sanitized.sdf:4-1

$$$$
sdf/inactives_sanitized.sdf:5
                    3D
 Schrodinger Suite 2020-1.
 57 60  0  0  1  0            999 V2000
    0.1408    0.0847    0.3057 C   0  0  0  0  0  0
   -0.6585    1.1803   -0.0152 N   0  0  0  0  0  0
    7.9010   -1.5764   -2.6217 S   0  0  0  0  0  0
   -1.9613    0.8939    0.1952 N   0  0  0  0  0  0
    1.5779    0.0520    0.4579 C   0  0  0  0  0  0
   -0.7639   -0.9352    0.5805 C   0  0  0  0  0  0
    8.4150   -2.5860   -1.2170 C   0  0  0  0  0  0
   -0.2913    2.5379   -0.2485 C   0  0  0  0  0  0
   -2.0381   -0.3805    0.4926 C   0  0  0  0  0  0
    7.5263   -2.9194   -0.1706 C   0  0  0  0  0  0
    2.4275    4.4581   -2.0722 C   0  0  0  0  0  0
    2.1269   -1.1211    0.0716 N   0  0  0  0  0  0
    0.8344    2.8393   -1.0287 C   0  0  0  0  0  0
    1.2374    4.1644   -1.2683 C   0  0  0  0  0  0
    6.5734   -2.0414   -3.0386 O   0  0  0  0  0  0
    8.1257   -0.1794   -2.2356 O   0  0  0  0  0  0
    6.1264   -2.4214   -0.1063 C   0  0  0  0  0  0
    3.1577    5.5269   -1.7776 N   0  3  0  0  0  0
    2.1920    1.0192    0.9097 O   0  0  0  0  0  0
    9.0058   -1.9424   -3.9373 N   0  0  0  0  0  0
    3.4839   -1.4925    0.0306 C   0  0  0  0  0  0
    5.8634   -1.0533    0.0074 C   0  0  0  0  0  0
    5.0567   -3.3200   -0.1455 C   0  0  0  0  0  0
    2.7480    3.6472   -3.0737 N   0  0  0  0  0  0
    3.7447   -2.8590   -0.0858 C   0  0  0  0  0  0
    4.5542   -0.5860    0.0695 C   0  0  0  0  0  0
   -1.0462    3.5946    0.2816 C   0  0  0  0  0  0
    9.7366   -3.0491   -1.1775 C   0  0  0  0  0  0
    7.9840   -3.7476    0.8631 C   0  0  0  0  0  0
    0.4632    5.1958   -0.7111 C   0  0  0  0  0  0
   -0.6683    4.9145    0.0517 C   0  0  0  0  0  0
   -3.3818   -1.0296    0.7266 C   0  0  0  0  0  0
   10.1741   -3.8613   -0.1344 C   0  0  0  0  0  0
    9.2952   -4.2171    0.8836 C   0  0  0  0  0  0
   -0.5298   -1.9509    0.8651 H   0  0  0  0  0  0
    1.4855   -1.8433   -0.2217 H   0  0  0  0  0  0
    1.4031    2.0267   -1.4583 H   0  0  0  0  0  0
    3.9814    5.7394   -2.3210 H   0  0  0  0  0  0
    9.9698   -1.6379   -3.7804 H   0  0  0  0  0  0
    8.9343   -2.8970   -4.2998 H   0  0  0  0  0  0
    6.6784   -0.3451    0.0440 H   0  0  0  0  0  0
    5.2419   -4.3810   -0.2329 H   0  0  0  0  0  0
    3.5706    3.8322   -3.6287 H   0  0  0  0  0  0
    2.1703    2.8432   -3.2718 H   0  0  0  0  0  0
    2.9344   -3.5732   -0.1263 H   0  0  0  0  0  0
    4.4027    0.4797    0.1328 H   0  0  0  0  0  0
   -1.9216    3.4033    0.8855 H   0  0  0  0  0  0
   10.4386   -2.7882   -1.9548 H   0  0  0  0  0  0
    7.3199   -4.0198    1.6711 H   0  0  0  0  0  0
    0.7249    6.2325   -0.8710 H   0  0  0  0  0  0
   -1.2527    5.7219    0.4685 H   0  0  0  0  0  0
   -3.2853   -2.0854    0.9811 H   0  0  0  0  0  0
   -4.0173   -0.9719   -0.1577 H   0  0  0  0  0  0
   -3.9233   -0.5538    1.5449 H   0  0  0  0  0  0
   11.1940   -4.2166   -0.1167 H   0  0  0  0  0  0
    9.6311   -4.8488    1.6927 H   0  0  0  0  0  0
    2.8913    6.1168   -1.0030 H   0  0  0  0  0  0
  1  2  1  0  0  0
  1  5  1  0  0  0
  1  6  2  0  0  0
  2  4  1  0  0  0
  2  8  1  0  0  0
  3  7  1  0  0  0
  3 15  2  0  0  0
  3 16  2  0  0  0
  3 20  1  0  0  0
  4  9  2  0  0  0
  5 12  1  0  0  0
  5 19  2  0  0  0
  6  9  1  0  0  0
  6 35  1  0  0  0
  7 10  2  0  0  0
  7 28  1  0  0  0
  8 13  2  0  0  0
  8 27  1  0  0  0
  9 32  1  0  0  0
 10 17  1  0  0  0
 10 29  1  0  0  0
 11 14  1  0  0  0
 11 18  2  0  0  0
 11 24  1  0  0  0
 12 21  1  0  0  0
 12 36  1  0  0  0
 13 14  1  0  0  0
 13 37  1  0  0  0
 14 30  2  0  0  0
 17 23  2  0  0  0
 17 22  1  0  0  0
 18 38  1  0  0  0
 18 57  1  0  0  0
 20 39  1  0  0  0
 20 40  1  0  0  0
 21 25  2  0  0  0
 21 26  1  0  0  0
 22 26  2  0  0  0
 22 41  1  0  0  0
 23 25  1  0  0  0
 23 42  1  0  0  0
 24 43  1  0  0  0
 24 44  1  0  0  0
 25 45  1  0  0  0
 26 46  1  0  0  0
 27 31  2  0  0  0
 27 47  1  0  0  0
 28 33  2  0  0  0
 28 48  1  0  0  0
 29 34  2  0  0  0
 29 49  1  0  0  0
 30 31  1  0  0  0
 30 50  1  0  0  0
 31 51  1  0  0  0
 32 52  1  0  0  0
 32 53  1  0  0  0
 32 54  1  0  0  0
 33 34  1  0  0  0
 33 55  1  0  0  0
 34 56  1  0  0  0
M  CHG  1  18   1
M  END
> <chembl_id>
CHEMBL37251

> <chembl_pref_name>
None

> <s_m_source_file>
sdf/inactives_sanitized.sdf

> <i_m_source_file_index>
5

> <i_lp_mmshare_version>
49012

> <i_m_ct_stereo_status>
1

> <i_f3d_flags>
0

> <s_epik_input>
W2NIXTFbY0hdW2NIXWMoL0MoPU4vW0hdKVtOSDJdKVtjSF1jMS1uKG5jKFtjSF0yKVtDSDNdKWMyQyg9TylbTkhdYyhbY0hdW2NIXTMpW2NIXVtjSF1jMy1jKGM0Uyg9TykoPU8pW05IMl0pW2NIXVtjSF1bY0hdW2NIXTQ=

> <s_epik_cmdline>
J2VwaWtfcHl0aG9uJywgJy1waHQnLCAnMC41JywgJy1waCcsICc3LjUnLCAnLW50JywgJy1tYScsICcyMDAnLCAnLWltYWUnLCAnPGluZmlsZS5tYWU+JywgJy1vbWFlJywgJzxvdXRmaWxlLm1hZT4n

> <r_lp_tautomer_probability>
1

> <r_epik_Ionization_Penalty>
  0.0033

> <r_epik_Ionization_Penalty_Charging>
  0.0010

> <r_epik_Ionization_Penalty_Neutral>
  0.0024

> <r_epik_State_Penalty>
 -0.0000

> <r_epik_Charging_Adjusted_Penalty>
0.000984797499885888

> <i_epik_Tot_Q>
1

> <i_epik_Tot_abs_Q>
1

> <s_epik_Chemistry_Notes>
This compound has an imine and may undergo hydrolysis.

> <s_lp_Force_Field>
OPLS3e

> <r_lp_Energy>
37.419349

> <b_lp_Chiralities_Consistent>
1

> <s_lp_Variant>
sdf/inactives_sanitized.sdf:5-1

$$$$
sdf/inactives_sanitized.sdf:6
                    3D
 Schrodinger Suite 2020-1.
 70 76  0  0  1  0            999 V2000
    0.2612   -0.2089   -0.3414 N   0  0  0  0  0  0
    1.6513   -0.1946   -0.0168 C   0  0  0  0  0  0
    2.5614    0.5488   -0.7840 C   0  0  0  0  0  0
    3.9147    0.5640   -0.4587 C   0  0  0  0  0  0
    4.3905   -0.1609    0.6367 C   0  0  0  0  0  0
    3.4852   -0.8790    1.4213 C   0  0  0  0  0  0
    2.1324   -0.9003    1.0981 C   0  0  0  0  0  0
   -2.4683   -4.0274    0.5398 C   0  0  0  0  0  0
   -2.4815   -5.4162    0.6748 C   0  0  0  0  0  0
   -3.5183   -4.1490   -1.6618 C   0  0  0  0  0  0
   -2.9695   -3.3986   -0.6094 C   0  0  0  0  0  0
   -2.9441   -1.9901   -0.7014 N   0  0  0  0  0  0
   -3.8340   -0.0556   -0.9100 C   0  0  0  0  0  0
   -4.1060   -1.3428   -0.9132 N   0  0  0  0  0  0
   -3.9750   -6.6689   -2.3168 C   0  0  0  0  0  0
   -3.5427   -5.5487   -1.5457 C   0  0  0  0  0  0
   -3.0249   -6.1467   -0.3864 C   0  0  0  0  0  0
   -3.1425   -7.5028   -0.4739 O   0  0  0  0  0  0
   -3.7457   -7.8081   -1.7026 N   0  0  0  0  0  0
   -4.5597   -6.5905   -3.5474 N   0  0  0  0  0  0
   -2.4621    0.1389   -0.7107 C   0  0  0  0  0  0
   -1.8764   -1.1176   -0.5809 C   0  0  0  0  0  0
   -0.4594   -1.3917   -0.3645 C   0  0  0  0  0  0
   -0.2998    0.9984   -1.0345 C   0  0  0  0  0  0
   -1.6777    1.2623   -0.6024 N   0  0  0  0  0  0
    0.0504   -2.5036   -0.2076 O   0  0  0  0  0  0
   -4.9478    0.9587   -1.1056 C   0  0  0  0  0  0
    5.8359   -0.1527    0.9864 C   0  0  0  0  0  0
    6.2208    0.4180    2.2070 C   0  0  0  0  0  0
    7.5588    0.4608    2.5925 C   0  0  0  0  0  0
    8.5374   -0.0729    1.7603 C   0  0  0  0  0  0
    8.1746   -0.6536    0.5479 C   0  0  0  0  0  0
    6.8324   -0.7084    0.1530 C   0  0  0  0  0  0
    6.5145   -1.3894   -1.1777 C   0  0  0  0  0  0
    6.4317   -2.9268   -1.0811 N   0  3  1  0  0  0
   -4.4890    2.2101   -1.0781 F   0  0  0  0  0  0
   -5.5562    0.7831   -2.2789 F   0  0  0  0  0  0
   -5.8695    0.8508   -0.1483 F   0  0  0  0  0  0
    5.2139   -3.4469   -0.2984 C   0  0  0  0  0  0
    5.1003   -4.9141   -0.7166 C   0  0  1  0  0  0
    5.4735   -4.8875   -2.2017 C   0  0  0  0  0  0
    6.3350   -3.6380   -2.4458 C   0  0  0  0  0  0
    6.0402   -5.6745    0.0218 O   0  0  0  0  0  0
    2.2393    1.1064   -1.6511 H   0  0  0  0  0  0
    4.5981    1.1393   -1.0669 H   0  0  0  0  0  0
    3.8308   -1.4314    2.2832 H   0  0  0  0  0  0
    1.4586   -1.4598    1.7309 H   0  0  0  0  0  0
   -2.0615   -3.4333    1.3458 H   0  0  0  0  0  0
   -2.0933   -5.9014    1.5580 H   0  0  0  0  0  0
   -3.9103   -3.6638   -2.5445 H   0  0  0  0  0  0
   -4.7281   -5.7029   -3.9982 H   0  0  0  0  0  0
   -4.8449   -7.4191   -4.0495 H   0  0  0  0  0  0
    0.2639    1.8971   -0.7801 H   0  0  0  0  0  0
   -0.2471    0.8796   -2.1192 H   0  0  0  0  0  0
   -2.0195    2.2085   -0.6961 H   0  0  0  0  0  0
    5.4748    0.8416    2.8643 H   0  0  0  0  0  0
    7.8358    0.9090    3.5355 H   0  0  0  0  0  0
    9.5758   -0.0409    2.0560 H   0  0  0  0  0  0
    8.9451   -1.0724   -0.0833 H   0  0  0  0  0  0
    5.5781   -1.0718   -1.6337 H   0  0  0  0  0  0
    7.3086   -1.2061   -1.9040 H   0  0  0  0  0  0
    5.3636   -3.2614    0.7664 H   0  0  0  0  0  0
    4.3527   -2.8581   -0.6206 H   0  0  0  0  0  0
    4.0981   -5.3133   -0.5540 H   0  0  0  0  0  0
    5.9647   -5.8057   -2.5282 H   0  0  0  0  0  0
    4.5660   -4.7951   -2.8000 H   0  0  0  0  0  0
    7.3568   -3.8497   -2.7618 H   0  0  0  0  0  0
    5.8451   -2.9546   -3.1417 H   0  0  0  0  0  0
    5.7926   -5.6553    0.9494 H   0  0  0  0  0  0
    7.2577   -3.2576   -0.6020 H   0  0  0  0  0  0
  1 23  1  0  0  0
  1 24  1  0  0  0
  1  2  1  0  0  0
  2  3  2  0  0  0
  2  7  1  0  0  0
  3  4  1  0  0  0
  3 44  1  0  0  0
  4  5  2  0  0  0
  4 45  1  0  0  0
  5  6  1  0  0  0
  5 28  1  0  0  0
  6  7  2  0  0  0
  6 46  1  0  0  0
  7 47  1  0  0  0
  8 11  2  0  0  0
  8  9  1  0  0  0
  8 48  1  0  0  0
  9 17  2  0  0  0
  9 49  1  0  0  0
 10 16  2  0  0  0
 10 11  1  0  0  0
 10 50  1  0  0  0
 11 12  1  0  0  0
 12 22  1  0  0  0
 12 14  1  0  0  0
 13 27  1  0  0  0
 13 21  1  0  0  0
 13 14  2  0  0  0
 15 20  1  0  0  0
 15 16  1  0  0  0
 15 19  2  0  0  0
 16 17  1  0  0  0
 17 18  1  0  0  0
 18 19  1  0  0  0
 20 51  1  0  0  0
 20 52  1  0  0  0
 21 22  2  0  0  0
 21 25  1  0  0  0
 22 23  1  0  0  0
 23 26  2  0  0  0
 24 25  1  0  0  0
 24 53  1  0  0  0
 24 54  1  0  0  0
 25 55  1  0  0  0
 27 36  1  0  0  0
 27 37  1  0  0  0
 27 38  1  0  0  0
 28 29  2  0  0  0
 28 33  1  0  0  0
 29 30  1  0  0  0
 29 56  1  0  0  0
 30 31  2  0  0  0
 30 57  1  0  0  0
 31 32  1  0  0  0
 31 58  1  0  0  0
 32 33  2  0  0  0
 32 59  1  0  0  0
 33 34  1  0  0  0
 34 35  1  0  0  0
 34 60  1  0  0  0
 34 61  1  0  0  0
 35 39  1  0  0  0
 35 42  1  0  0  0
 35 70  1  0  0  0
 39 40  1  0  0  0
 39 62  1  0  0  0
 39 63  1  0  0  0
 40 41  1  0  0  0
 40 43  1  0  0  0
 40 64  1  0  0  0
 41 42  1  0  0  0
 41 65  1  0  0  0
 41 66  1  0  0  0
 42 67  1  0  0  0
 42 68  1  0  0  0
 43 69  1  0  0  0
M  CHG  1  35   1
M  END
> <chembl_id>
CHEMBL384129

> <chembl_pref_name>
None

> <i_m_ct_stereo_status>
1

> <s_m_source_file>
sdf/inactives_sanitized.sdf

> <i_m_source_file_index>
6

> <i_lp_mmshare_version>
49012

> <i_f3d_flags>
0

> <s_epik_input>
W05IMl1jMW5vYyhjMTIpW2NIXVtjSF1jKFtjSF0yKS1uKG5jM0MoRikoRilGKWMoYzM0KUMoPU8pTihbQ0gyXVtOSF00KWM1W2NIXVtjSF1jKFtjSF1bY0hdNSktYzZbY0hdW2NIXVtjSF1bY0hdYzZbQ0gyXU43W0NIMl1bQ0BIXShbT0hdKVtDSDJdW0NIMl03

> <s_epik_cmdline>
J2VwaWtfcHl0aG9uJywgJy1waHQnLCAnMC41JywgJy1waCcsICc3LjUnLCAnLW50JywgJy1tYScsICcyMDAnLCAnLWltYWUnLCAnPGluZmlsZS5tYWU+JywgJy1vbWFlJywgJzxvdXRmaWxlLm1hZT4n

> <r_epik_Ionization_Penalty>
  0.0356

> <r_epik_Ionization_Penalty_Charging>
  0.0322

> <r_epik_Ionization_Penalty_Neutral>
  0.0034

> <r_epik_State_Penalty>
  0.0267

> <r_epik_Charging_Adjusted_Penalty>
0.0588988185082181

> <i_epik_Tot_Q>
1

> <i_epik_Tot_abs_Q>
1

> <s_epik_Chemistry_Notes>
This compound contains an acetal/aminal-like group ( X-CH(R)-Y where X, Y are N, S, or O) that may be acid/base labile, releasing an aldehyde.

> <s_lp_Force_Field>
OPLS3e

> <r_lp_Energy>
76.542077

> <b_lp_Chiralities_Consistent>
1

> <s_lp_Variant>
sdf/inactives_sanitized.sdf:6-1

$$$$
sdf/inactives_sanitized.sdf:7
                    3D
 Schrodinger Suite 2020-1.
 71 77  0  0  1  0            999 V2000
   -4.7680    1.2808    1.5907 F   0  0  0  0  0  0
   -6.0898   -0.2427    0.8531 F   0  0  0  0  0  0
   -5.3454    1.2748   -0.4817 F   0  0  0  0  0  0
   -2.1977   -6.9916   -2.9583 O   0  0  0  0  0  0
    0.2940   -2.3565   -0.4896 O   0  0  0  0  0  0
   -1.3774   -6.6773   -4.0515 N   0  0  0  0  0  0
   -0.3584   -4.7345   -4.9095 N   0  0  0  0  0  0
   -2.7463   -2.0491   -0.5561 N   0  0  0  0  0  0
   -3.9765   -1.5607   -0.3278 N   0  0  0  0  0  0
    0.3350   -0.1463    0.1152 N   0  0  0  0  0  0
   -2.4268   -5.8437   -2.2581 C   0  0  0  0  0  0
   -1.7680   -4.7701   -2.8769 C   0  0  0  0  0  0
   -1.1331   -5.3869   -3.9954 C   0  0  0  0  0  0
   -3.1932   -5.7048   -1.0969 C   0  0  0  0  0  0
   -3.2817   -4.4230   -0.5524 C   0  0  0  0  0  0
   -2.6298   -3.3292   -1.1430 C   0  0  0  0  0  0
   -1.8745   -3.4874   -2.3152 C   0  0  0  0  0  0
   -3.8151   -0.3697    0.2043 C   0  0  0  0  0  0
   -2.4516   -0.0661    0.3266 C   0  0  0  0  0  0
   -1.7576   -1.1524   -0.1897 C   0  0  0  0  0  0
   -5.0189    0.4919    0.5459 C   0  0  0  0  0  0
   -0.3116   -1.3118   -0.2368 C   0  0  0  0  0  0
    1.7391   -0.0965    0.1281 C   0  0  0  0  0  0
    2.4042   -0.0574    1.3545 C   0  0  0  0  0  0
    3.7950   -0.0076    1.3824 C   0  0  0  0  0  0
    4.5305    0.0267    0.1921 C   0  0  0  0  0  0
    3.8516   -0.0142   -1.0315 C   0  0  0  0  0  0
    2.4616   -0.0702   -1.0688 C   0  0  0  0  0  0
    6.0188    0.0677    0.2149 C   0  0  0  0  0  0
    6.7579    1.1290    0.7859 C   0  0  0  0  0  0
    6.1012    2.3574    1.4151 C   0  0  0  0  0  0
    6.0015    3.5644    0.4597 N   0  3  2  0  0  0
    5.5421    4.8685    1.1435 C   0  0  0  0  0  0
    5.0063    3.3721   -0.6977 C   0  0  0  0  0  0
    6.7178   -0.9957   -0.3736 C   0  0  0  0  0  0
    8.1102   -1.0283   -0.3831 C   0  0  0  0  0  0
    8.1575    1.0822    0.7758 C   0  0  0  0  0  0
    8.8312    0.0108    0.1955 C   0  0  0  0  0  0
    4.7355    4.7919   -1.1991 C   0  0  1  0  0  0
    4.7145    5.6204    0.0887 C   0  0  0  0  0  0
    5.8045    5.1954   -2.0367 O   0  0  0  0  0  0
   -0.3263    1.1859    0.0950 C   0  0  0  0  0  0
   -1.7008    1.1499    0.8088 C   0  0  0  0  0  0
   -0.1769   -3.7438   -4.8396 H   0  0  0  0  0  0
    0.0677   -5.2233   -5.6836 H   0  0  0  0  0  0
   -3.6914   -6.5475   -0.6412 H   0  0  0  0  0  0
   -3.8628   -4.2827    0.3481 H   0  0  0  0  0  0
   -1.3807   -2.6438   -2.7760 H   0  0  0  0  0  0
    1.8495   -0.0795    2.2817 H   0  0  0  0  0  0
    4.3027    0.0019    2.3362 H   0  0  0  0  0  0
    4.4036    0.0020   -1.9603 H   0  0  0  0  0  0
    1.9508   -0.0976   -2.0208 H   0  0  0  0  0  0
    5.0915    2.1912    1.7850 H   0  0  0  0  0  0
    6.6960    2.7255    2.2533 H   0  0  0  0  0  0
    4.9263    4.5972    2.0031 H   0  0  0  0  0  0
    6.4470    5.3898    1.4578 H   0  0  0  0  0  0
    5.4303    2.6784   -1.4255 H   0  0  0  0  0  0
    4.1133    2.9070   -0.2753 H   0  0  0  0  0  0
    6.1756   -1.8157   -0.8227 H   0  0  0  0  0  0
    8.6287   -1.8605   -0.8365 H   0  0  0  0  0  0
    8.7318    1.8864    1.2129 H   0  0  0  0  0  0
    9.9113   -0.0119    0.1909 H   0  0  0  0  0  0
    3.7949    4.8646   -1.7473 H   0  0  0  0  0  0
    3.6885    5.6949    0.4525 H   0  0  0  0  0  0
    5.0612    6.6436   -0.0650 H   0  0  0  0  0  0
    5.8019    4.6495   -2.8269 H   0  0  0  0  0  0
    0.3060    1.9334    0.5770 H   0  0  0  0  0  0
   -0.4468    1.4959   -0.9442 H   0  0  0  0  0  0
   -2.2498    2.0706    0.6089 H   0  0  0  0  0  0
   -1.5657    1.1119    1.8902 H   0  0  0  0  0  0
    6.9115    3.7192    0.0483 H   0  0  0  0  0  0
  1 21  1  0  0  0
  2 21  1  0  0  0
  3 21  1  0  0  0
  4  6  1  0  0  0
  4 11  1  0  0  0
  5 22  2  0  0  0
  6 13  2  0  0  0
  7 13  1  0  0  0
  7 44  1  0  0  0
  7 45  1  0  0  0
  8  9  1  0  0  0
  8 16  1  0  0  0
  8 20  1  0  0  0
  9 18  2  0  0  0
 10 22  1  0  0  0
 10 23  1  0  0  0
 10 42  1  0  0  0
 11 12  2  0  0  0
 11 14  1  0  0  0
 12 13  1  0  0  0
 12 17  1  0  0  0
 14 15  2  0  0  0
 14 46  1  0  0  0
 15 16  1  0  0  0
 15 47  1  0  0  0
 16 17  2  0  0  0
 17 48  1  0  0  0
 18 19  1  0  0  0
 18 21  1  0  0  0
 19 20  2  0  0  0
 19 43  1  0  0  0
 20 22  1  0  0  0
 23 24  2  0  0  0
 23 28  1  0  0  0
 24 25  1  0  0  0
 24 49  1  0  0  0
 25 26  2  0  0  0
 25 50  1  0  0  0
 26 27  1  0  0  0
 26 29  1  0  0  0
 27 28  2  0  0  0
 27 51  1  0  0  0
 28 52  1  0  0  0
 29 30  1  0  0  0
 29 35  2  0  0  0
 30 31  1  0  0  0
 30 37  2  0  0  0
 31 32  1  0  0  0
 31 53  1  0  0  0
 31 54  1  0  0  0
 32 33  1  0  0  0
 32 34  1  0  0  0
 32 71  1  0  0  0
 33 40  1  0  0  0
 33 55  1  0  0  0
 33 56  1  0  0  0
 34 39  1  0  0  0
 34 57  1  0  0  0
 34 58  1  0  0  0
 35 36  1  0  0  0
 35 59  1  0  0  0
 36 38  2  0  0  0
 36 60  1  0  0  0
 37 38  1  0  0  0
 37 61  1  0  0  0
 38 62  1  0  0  0
 39 40  1  0  0  0
 39 41  1  0  0  0
 39 63  1  0  0  0
 40 64  1  0  0  0
 40 65  1  0  0  0
 41 66  1  0  0  0
 42 43  1  0  0  0
 42 67  1  0  0  0
 42 68  1  0  0  0
 43 69  1  0  0  0
 43 70  1  0  0  0
M  CHG  1  32   1
M  END
> <chembl_id>
CHEMBL378093

> <chembl_pref_name>
None

> <i_m_ct_stereo_status>
1

> <s_m_source_file>
sdf/inactives_sanitized.sdf

> <i_m_source_file_index>
7

> <i_lp_mmshare_version>
49012

> <i_f3d_flags>
0

> <s_epik_input>
bzFuYyhbTkgyXSljKGMxMilbY0hdYyhbY0hdW2NIXTIpLW4obmMzQyhGKShGKUYpYyhjMzQpQyg9TylOKFtDSDJdW0NIMl00KWM1W2NIXVtjSF1jKFtjSF1bY0hdNSktYzZjKFtjSF1bY0hdW2NIXVtjSF02KVtDSDJdTjdbQ0gyXVtDSDJdW0NASF0oW0NIMl03KVtPSF0=

> <s_epik_cmdline>
J2VwaWtfcHl0aG9uJywgJy1waHQnLCAnMC41JywgJy1waCcsICc3LjUnLCAnLW50JywgJy1tYScsICcyMDAnLCAnLWltYWUnLCAnPGluZmlsZS5tYWU+JywgJy1vbWFlJywgJzxvdXRmaWxlLm1hZT4n

> <r_lp_tautomer_probability>
1

> <r_epik_Ionization_Penalty>
  0.0322

> <r_epik_Ionization_Penalty_Charging>
  0.0322

> <r_epik_Ionization_Penalty_Neutral>
  0.0000

> <r_epik_State_Penalty>
  0.0267

> <r_epik_Charging_Adjusted_Penalty>
0.0588988185082181

> <i_epik_Tot_Q>
1

> <i_epik_Tot_abs_Q>
1

> <s_lp_Force_Field>
OPLS3e

> <r_lp_Energy>
73.420719

> <b_lp_Chiralities_Consistent>
1

> <s_lp_Variant>
sdf/inactives_sanitized.sdf:7-1

$$$$
sdf/inactives_sanitized.sdf:8
                    3D
 Schrodinger Suite 2020-1.
 34 35  0  0  1  0            999 V2000
    0.0163    2.7633    0.4028 C   0  0  0  0  0  0
   -0.6754    3.9509    0.6121 C   0  0  0  0  0  0
   -2.0662    3.9840    0.6082 C   0  0  0  0  0  0
   -0.6642    1.5574    0.1776 C   0  0  0  0  0  0
   -2.0744    1.5543    0.1689 C   0  0  0  0  0  0
   -2.7590    2.7855    0.3874 C   0  0  0  0  0  0
   -4.5008    2.5731    0.3407 S   0  0  0  0  0  0
   -4.3208    0.8527    0.0210 C   0  0  0  0  0  0
   -2.9865    0.4781   -0.0315 C   0  0  0  0  0  0
   -5.4246    0.0336   -0.1236 C   0  0  0  0  0  0
   -6.5144    0.5108   -0.7111 N   0  0  0  0  0  0
   -5.3534   -1.2135    0.3247 N   0  3  0  0  0  0
   -0.0739    0.3233   -0.0359 O   0  0  0  0  0  0
    1.3504    0.2089   -0.1332 C   0  0  2  0  0  0
    1.8798    0.7146   -1.4906 C   0  0  0  0  0  0
    1.6863   -1.2787    0.0711 C   0  0  0  0  0  0
    3.2156    0.9062   -1.4761 O   0  0  0  0  0  0
    3.8910    1.3700   -2.6361 C   0  0  0  0  0  0
    1.1310    0.9138   -2.4506 O   0  0  0  0  0  0
    1.0950    2.7973    0.4172 H   0  0  0  0  0  0
   -0.1222    4.8634    0.7811 H   0  0  0  0  0  0
   -2.5935    4.9126    0.7727 H   0  0  0  0  0  0
   -2.6628   -0.5362   -0.2139 H   0  0  0  0  0  0
   -7.3280   -0.0770   -0.8182 H   0  0  0  0  0  0
   -6.5254    1.4636   -1.0454 H   0  0  0  0  0  0
   -6.1491   -1.8277    0.2326 H   0  0  0  0  0  0
    1.8231    0.7641    0.6781 H   0  0  0  0  0  0
    2.7607   -1.4612    0.0228 H   0  0  0  0  0  0
    1.2071   -1.9068   -0.6817 H   0  0  0  0  0  0
    1.3444   -1.6208    1.0484 H   0  0  0  0  0  0
    4.9566    1.4669   -2.4286 H   0  0  0  0  0  0
    3.5156    2.3464   -2.9459 H   0  0  0  0  0  0
    3.7691    0.6726   -3.4663 H   0  0  0  0  0  0
   -4.5061   -1.5387    0.7666 H   0  0  0  0  0  0
  1  4  2  0  0  0
  1  2  1  0  0  0
  1 20  1  0  0  0
  2  3  2  0  0  0
  2 21  1  0  0  0
  3  6  1  0  0  0
  3 22  1  0  0  0
  4 13  1  0  0  0
  4  5  1  0  0  0
  5  9  1  0  0  0
  5  6  2  0  0  0
  6  7  1  0  0  0
  7  8  1  0  0  0
  8 10  1  0  0  0
  8  9  2  0  0  0
  9 23  1  0  0  0
 10 11  1  0  0  0
 10 12  2  0  0  0
 11 24  1  0  0  0
 11 25  1  0  0  0
 12 26  1  0  0  0
 12 34  1  0  0  0
 13 14  1  0  0  0
 14 15  1  0  0  0
 14 16  1  0  0  0
 14 27  1  0  0  0
 15 17  1  0  0  0
 15 19  2  0  0  0
 16 28  1  0  0  0
 16 29  1  0  0  0
 16 30  1  0  0  0
 17 18  1  0  0  0
 18 31  1  0  0  0
 18 32  1  0  0  0
 18 33  1  0  0  0
M  CHG  1  12   1
M  END
> <chembl_id>
CHEMBL589526

> <chembl_pref_name>
None

> <s_m_source_file>
sdf/inactives_sanitized.sdf

> <i_m_source_file_index>
8

> <i_lp_mmshare_version>
49012

> <i_m_ct_stereo_status>
1

> <i_f3d_flags>
0

> <s_epik_input>
W0NIM11PQyg9TylbQ0BIXShbQ0gzXSlPYzFbY0hdW2NIXVtjSF1jKGMxMilzYyhbY0hdMikvQyhbTkgyXSk9Ti9bSF0=

> <s_epik_cmdline>
J2VwaWtfcHl0aG9uJywgJy1waHQnLCAnMC41JywgJy1waCcsICc3LjUnLCAnLW50JywgJy1tYScsICcyMDAnLCAnLWltYWUnLCAnPGluZmlsZS5tYWU+JywgJy1vbWFlJywgJzxvdXRmaWxlLm1hZT4n

> <r_lp_tautomer_probability>
1

> <r_epik_Ionization_Penalty>
  0.0095

> <r_epik_Ionization_Penalty_Charging>
  0.0095

> <r_epik_Ionization_Penalty_Neutral>
  0.0000

> <r_epik_State_Penalty>
 -0.0000

> <r_epik_Charging_Adjusted_Penalty>
0.00945881282357717

> <i_epik_Tot_Q>
1

> <i_epik_Tot_abs_Q>
1

> <s_epik_Chemistry_Notes>
This compound has an ester and may undergo hydrolysis at high or low pH. This compound has an imine and may undergo hydrolysis.

> <s_lp_Force_Field>
OPLS3e

> <r_lp_Energy>
14.724236

> <b_lp_Chiralities_Consistent>
1

> <s_lp_Variant>
sdf/inactives_sanitized.sdf:8-1

$$$$
sdf/inactives_sanitized.sdf:9
                    3D
 Schrodinger Suite 2020-1.
 45 48  0  0  1  0            999 V2000
   -0.0298    0.1867    0.0723 O   0  0  0  0  0  0
   -0.7464    1.4175    0.0380 C   0  0  0  0  0  0
   -2.2356    1.1200    0.0429 C   0  0  0  0  0  0
   -2.9213    0.9757    1.2535 C   0  0  0  0  0  0
   -4.9759    0.5568    0.0511 C   0  0  0  0  0  0
   -4.2960    0.6958   -1.1599 C   0  0  0  0  0  0
   -4.2883    0.6955    1.2569 C   0  0  0  0  0  0
   -2.9283    0.9756   -1.1637 C   0  0  0  0  0  0
    4.3503    2.5608   -0.1102 C   0  0  0  0  0  0
    3.9677    3.6138   -0.9470 C   0  0  0  0  0  0
    4.7044    4.7911   -1.0361 C   0  0  0  0  0  0
    5.5105    2.6889    0.6654 C   0  0  0  0  0  0
    6.2849    3.8602    0.6055 C   0  0  0  0  0  0
    5.8620    4.9081   -0.2576 C   0  0  0  0  0  0
    6.9587    6.2772   -0.1920 S   0  0  0  0  0  0
    7.9739    5.4548    0.9875 C   0  0  0  0  0  0
    7.4824    4.1943    1.2966 C   0  0  0  0  0  0
    9.1203    6.0492    1.4812 C   0  0  0  0  0  0
    9.1385    7.3612    1.6804 N   0  0  0  0  0  0
   10.1689    5.2811    1.7480 N   0  3  0  0  0  0
    3.5338    1.3144   -0.0449 C   0  0  0  0  0  0
    4.1474    0.0551   -0.0188 C   0  0  0  0  0  0
    1.9958   -1.0317    0.0679 C   0  0  0  0  0  0
    1.3513    0.2057    0.0427 C   0  0  0  0  0  0
    3.3859   -1.1100    0.0377 C   0  0  0  0  0  0
    2.1326    1.3730   -0.0108 C   0  0  0  0  0  0
   -5.1448    0.5211   -2.6526 Cl  0  0  0  0  0  0
   -0.4943    2.0360    0.9018 H   0  0  0  0  0  0
   -0.4934    1.9907   -0.8564 H   0  0  0  0  0  0
   -2.3967    1.0788    2.1924 H   0  0  0  0  0  0
   -6.0342    0.3402    0.0585 H   0  0  0  0  0  0
   -4.8138    0.5851    2.1940 H   0  0  0  0  0  0
   -2.4055    1.0785   -2.1039 H   0  0  0  0  0  0
    3.0786    3.5193   -1.5538 H   0  0  0  0  0  0
    4.3878    5.5890   -1.6923 H   0  0  0  0  0  0
    5.8105    1.8830    1.3195 H   0  0  0  0  0  0
    7.9606    3.5268    1.9983 H   0  0  0  0  0  0
    9.9717    7.8052    2.0375 H   0  0  0  0  0  0
    8.3175    7.9105    1.4715 H   0  0  0  0  0  0
   11.0178    5.6941    2.1057 H   0  0  0  0  0  0
    5.2243   -0.0282   -0.0498 H   0  0  0  0  0  0
    1.4132   -1.9405    0.1098 H   0  0  0  0  0  0
    3.8730   -2.0739    0.0546 H   0  0  0  0  0  0
    1.6574    2.3421   -0.0216 H   0  0  0  0  0  0
   10.1169    4.2875    1.5771 H   0  0  0  0  0  0
  1  2  1  0  0  0
  1 24  1  0  0  0
  2  3  1  0  0  0
  2 28  1  0  0  0
  2 29  1  0  0  0
  3  8  2  0  0  0
  3  4  1  0  0  0
  4  7  2  0  0  0
  4 30  1  0  0  0
  5  7  1  0  0  0
  5  6  2  0  0  0
  5 31  1  0  0  0
  6  8  1  0  0  0
  6 27  1  0  0  0
  7 32  1  0  0  0
  8 33  1  0  0  0
  9 10  2  0  0  0
  9 21  1  0  0  0
  9 12  1  0  0  0
 10 11  1  0  0  0
 10 34  1  0  0  0
 11 14  2  0  0  0
 11 35  1  0  0  0
 12 13  2  0  0  0
 12 36  1  0  0  0
 13 17  1  0  0  0
 13 14  1  0  0  0
 14 15  1  0  0  0
 15 16  1  0  0  0
 16 17  2  0  0  0
 16 18  1  0  0  0
 17 37  1  0  0  0
 18 19  1  0  0  0
 18 20  2  0  0  0
 19 38  1  0  0  0
 19 39  1  0  0  0
 20 40  1  0  0  0
 20 45  1  0  0  0
 21 22  2  0  0  0
 21 26  1  0  0  0
 22 25  1  0  0  0
 22 41  1  0  0  0
 23 24  1  0  0  0
 23 25  2  0  0  0
 23 42  1  0  0  0
 24 26  2  0  0  0
 25 43  1  0  0  0
 26 44  1  0  0  0
M  CHG  1  20   1
M  END
> <chembl_id>
CHEMBL597574

> <chembl_pref_name>
None

> <s_m_source_file>
sdf/inactives_sanitized.sdf

> <i_m_source_file_index>
9

> <i_lp_mmshare_version>
49012

> <i_m_ct_stereo_status>
1

> <i_f3d_flags>
0

> <s_epik_input>
W2NIXTFjKENsKVtjSF1bY0hdW2NIXWMxW0NIMl1PYyhbY0hdMilbY0hdW2NIXVtjSF1jMi1jKFtjSF0zKVtjSF1bY0hdYyhjMzQpc2MoW2NIXTQpL0MoW05IMl0pPU4vW0hd

> <s_epik_cmdline>
J2VwaWtfcHl0aG9uJywgJy1waHQnLCAnMC41JywgJy1waCcsICc3LjUnLCAnLW50JywgJy1tYScsICcyMDAnLCAnLWltYWUnLCAnPGluZmlsZS5tYWU+JywgJy1vbWFlJywgJzxvdXRmaWxlLm1hZT4n

> <r_lp_tautomer_probability>
1

> <r_epik_Ionization_Penalty>
  0.0095

> <r_epik_Ionization_Penalty_Charging>
  0.0095

> <r_epik_Ionization_Penalty_Neutral>
  0.0000

> <r_epik_State_Penalty>
 -0.0000

> <r_epik_Charging_Adjusted_Penalty>
0.00945881282357717

> <i_epik_Tot_Q>
1

> <i_epik_Tot_abs_Q>
1

> <s_epik_Chemistry_Notes>
This compound has an imine and may undergo hydrolysis.

> <s_lp_Force_Field>
OPLS3e

> <r_lp_Energy>
31.988495

> <b_lp_Chiralities_Consistent>
1

> <s_lp_Variant>
sdf/inactives_sanitized.sdf:9-1

$$$$
sdf/inactives_sanitized.sdf:10
                    3D
 Schrodinger Suite 2020-1.
 51 54  0  0  1  0            999 V2000
   -0.0182    0.1583    0.0098 O   0  0  0  0  0  0
   -0.7717    1.3671   -0.0602 C   0  0  0  0  0  0
   -2.2577    1.0430   -0.0498 C   0  0  0  0  0  0
   -3.0931    1.5494   -1.0487 C   0  0  0  0  0  0
   -4.9831    0.4489   -0.0193 C   0  0  0  0  0  0
   -4.1503   -0.0436    0.9868 C   0  0  0  0  0  0
   -4.4542    1.2571   -1.0315 C   0  0  0  0  0  0
   -2.7896    0.2501    0.9703 C   0  0  0  0  0  0
    4.2837    2.6740   -0.0071 C   0  0  0  0  0  0
    5.4382    2.7627   -0.7907 C   0  0  0  0  0  0
    6.1825    3.9353   -0.8777 C   0  0  0  0  0  0
    3.8598    3.7961    0.7182 C   0  0  0  0  0  0
    4.5798    5.0014    0.6568 C   0  0  0  0  0  0
    5.7476    5.0515   -0.1530 C   0  0  0  0  0  0
    6.4997    6.6366   -0.0989 S   0  0  0  0  0  0
    5.2614    7.2276    1.0029 C   0  0  0  0  0  0
    4.3261    6.2459    1.2976 C   0  0  0  0  0  0
    5.2748    8.5330    1.4573 C   0  0  0  0  0  0
    6.4378    9.1218    1.7055 N   0  0  0  0  0  0
    4.1166    9.1548    1.6381 N   0  3  0  0  0  0
    3.5082    1.4016    0.0517 C   0  0  0  0  0  0
    4.1602    0.1654    0.1521 C   0  0  0  0  0  0
    2.0431   -0.9913    0.1511 C   0  0  0  0  0  0
    1.3613    0.2221    0.0533 C   0  0  0  0  0  0
    3.4345   -1.0229    0.2013 C   0  0  0  0  0  0
    2.1064    1.4129    0.0041 C   0  0  0  0  0  0
   -6.3308    0.1680    0.0290 O   0  0  0  0  0  0
   -6.8684   -0.7164   -0.8541 C   0  0  0  0  0  0
   -8.3665   -0.8953   -0.6428 C   0  0  0  0  0  0
   -6.2722   -1.3357   -1.7382 O   0  0  0  0  0  0
   -0.5111    1.9180   -0.9662 H   0  0  0  0  0  0
   -0.5539    2.0089    0.7955 H   0  0  0  0  0  0
   -2.6934    2.1701   -1.8375 H   0  0  0  0  0  0
   -4.5570   -0.6553    1.7790 H   0  0  0  0  0  0
   -5.0973    1.6539   -1.8036 H   0  0  0  0  0  0
   -2.1503   -0.1376    1.7503 H   0  0  0  0  0  0
    5.7678    1.9037   -1.3575 H   0  0  0  0  0  0
    7.0695    3.9784   -1.4932 H   0  0  0  0  0  0
    2.9731    3.7345    1.3323 H   0  0  0  0  0  0
    3.4840    6.4077    1.9543 H   0  0  0  0  0  0
    6.4598   10.0752    2.0362 H   0  0  0  0  0  0
    7.2972    8.6116    1.5616 H   0  0  0  0  0  0
    4.1037   10.1088    1.9678 H   0  0  0  0  0  0
    5.2388    0.1188    0.1977 H   0  0  0  0  0  0
    1.4890   -1.9180    0.1897 H   0  0  0  0  0  0
    3.9506   -1.9685    0.2794 H   0  0  0  0  0  0
    1.6026    2.3637   -0.0813 H   0  0  0  0  0  0
   -8.8765    0.0660   -0.7076 H   0  0  0  0  0  0
   -8.5602   -1.3272    0.3390 H   0  0  0  0  0  0
   -8.7864   -1.5586   -1.3995 H   0  0  0  0  0  0
    3.2527    8.6750    1.4314 H   0  0  0  0  0  0
  1 24  1  0  0  0
  1  2  1  0  0  0
  2  3  1  0  0  0
  2 31  1  0  0  0
  2 32  1  0  0  0
  3  4  2  0  0  0
  3  8  1  0  0  0
  4  7  1  0  0  0
  4 33  1  0  0  0
  5  7  2  0  0  0
  5  6  1  0  0  0
  5 27  1  0  0  0
  6  8  2  0  0  0
  6 34  1  0  0  0
  7 35  1  0  0  0
  8 36  1  0  0  0
  9 10  2  0  0  0
  9 21  1  0  0  0
  9 12  1  0  0  0
 10 11  1  0  0  0
 10 37  1  0  0  0
 11 14  2  0  0  0
 11 38  1  0  0  0
 12 13  2  0  0  0
 12 39  1  0  0  0
 13 17  1  0  0  0
 13 14  1  0  0  0
 14 15  1  0  0  0
 15 16  1  0  0  0
 16 17  2  0  0  0
 16 18  1  0  0  0
 17 40  1  0  0  0
 18 19  1  0  0  0
 18 20  2  0  0  0
 19 41  1  0  0  0
 19 42  1  0  0  0
 20 43  1  0  0  0
 20 51  1  0  0  0
 21 22  2  0  0  0
 21 26  1  0  0  0
 22 25  1  0  0  0
 22 44  1  0  0  0
 23 24  1  0  0  0
 23 25  2  0  0  0
 23 45  1  0  0  0
 24 26  2  0  0  0
 25 46  1  0  0  0
 26 47  1  0  0  0
 27 28  1  0  0  0
 28 29  1  0  0  0
 28 30  2  0  0  0
 29 48  1  0  0  0
 29 49  1  0  0  0
 29 50  1  0  0  0
M  CHG  1  20   1
M  END
> <chembl_id>
CHEMBL599840

> <chembl_pref_name>
None

> <s_m_source_file>
sdf/inactives_sanitized.sdf

> <i_m_source_file_index>
10

> <i_lp_mmshare_version>
49012

> <i_m_ct_stereo_status>
1

> <i_f3d_flags>
0

> <s_epik_input>
W0NIM11DKD1PKU9jKFtjSF1bY0hdMSlbY0hdW2NIXWMxW0NIMl1PYyhbY0hdMilbY0hdW2NIXVtjSF1jMi1jKFtjSF0zKVtjSF1bY0hdYyhjMzQpc2MoW2NIXTQpL0MoW05IMl0pPU4vW0hd

> <s_epik_cmdline>
J2VwaWtfcHl0aG9uJywgJy1waHQnLCAnMC41JywgJy1waCcsICc3LjUnLCAnLW50JywgJy1tYScsICcyMDAnLCAnLWltYWUnLCAnPGluZmlsZS5tYWU+JywgJy1vbWFlJywgJzxvdXRmaWxlLm1hZT4n

> <r_lp_tautomer_probability>
1

> <r_epik_Ionization_Penalty>
  0.0095

> <r_epik_Ionization_Penalty_Charging>
  0.0095

> <r_epik_Ionization_Penalty_Neutral>
  0.0000

> <r_epik_State_Penalty>
 -0.0000

> <r_epik_Charging_Adjusted_Penalty>
0.00945881282357717

> <i_epik_Tot_Q>
1

> <i_epik_Tot_abs_Q>
1

> <s_epik_Chemistry_Notes>
This compound has an imine and may undergo hydrolysis.

> <s_lp_Force_Field>
OPLS3e

> <r_lp_Energy>
37.709896

> <b_lp_Chiralities_Consistent>
1

> <s_lp_Variant>
sdf/inactives_sanitized.sdf:10-1

$$$$
sdf/inactives_sanitized.sdf:11
                    3D
 Schrodinger Suite 2020-1.
 45 48  0  0  1  0            999 V2000
   -0.0725    0.1312   -0.0631 O   0  0  0  0  0  0
   -0.8382    1.3257    0.0648 C   0  0  0  0  0  0
   -2.3143    0.9667    0.0675 C   0  0  0  0  0  0
   -2.9830    0.7686   -1.1435 C   0  0  0  0  0  0
   -5.0110    0.2926    0.0662 C   0  0  0  0  0  0
   -4.3490    0.4865    1.2769 C   0  0  0  0  0  0
   -4.3343    0.4320   -1.1439 C   0  0  0  0  0  0
   -2.9978    0.8233    1.2782 C   0  0  0  0  0  0
    4.2099    2.6819    0.0369 C   0  0  0  0  0  0
    5.3496    2.7738    0.8415 C   0  0  0  0  0  0
    6.0924    3.9469    0.9371 C   0  0  0  0  0  0
    3.7968    3.8018   -0.6973 C   0  0  0  0  0  0
    4.5189    5.0057   -0.6320 C   0  0  0  0  0  0
    5.6723    5.0589    0.1976 C   0  0  0  0  0  0
    6.4290    6.6417    0.1457 S   0  0  0  0  0  0
    5.2165    7.2258   -0.9884 C   0  0  0  0  0  0
    4.2815    6.2452   -1.2887 C   0  0  0  0  0  0
    5.2468    8.5253   -1.4598 C   0  0  0  0  0  0
    6.4181    9.1109   -1.6756 N   0  0  0  0  0  0
    4.0964    9.1456   -1.6894 N   0  3  0  0  0  0
    3.4432    1.4056   -0.0419 C   0  0  0  0  0  0
    4.1066    0.1763   -0.1512 C   0  0  0  0  0  0
    1.9997   -0.9968   -0.2002 C   0  0  0  0  0  0
    1.3066    0.2090   -0.0892 C   0  0  0  0  0  0
    3.3918   -1.0167   -0.2304 C   0  0  0  0  0  0
    2.0408    1.4054   -0.0112 C   0  0  0  0  0  0
   -0.5836    1.8506    0.9880 H   0  0  0  0  0  0
   -0.6353    2.0082   -0.7630 H   0  0  0  0  0  0
   -2.4576    0.8730   -2.0819 H   0  0  0  0  0  0
   -6.0587    0.0302    0.0656 H   0  0  0  0  0  0
   -4.8812    0.3746    2.2101 H   0  0  0  0  0  0
   -4.8550    0.2782   -2.0775 H   0  0  0  0  0  0
   -2.4852    0.9695    2.2178 H   0  0  0  0  0  0
    5.6704    1.9162    1.4156 H   0  0  0  0  0  0
    6.9688    3.9928    1.5674 H   0  0  0  0  0  0
    2.9213    3.7373   -1.3270 H   0  0  0  0  0  0
    3.4524    6.4029   -1.9626 H   0  0  0  0  0  0
    6.4515   10.0599   -2.0177 H   0  0  0  0  0  0
    7.2721    8.6038   -1.4937 H   0  0  0  0  0  0
    4.0963   10.0941   -2.0349 H   0  0  0  0  0  0
    5.1860    0.1393   -0.1833 H   0  0  0  0  0  0
    1.4539   -1.9270   -0.2621 H   0  0  0  0  0  0
    3.9167   -1.9568   -0.3168 H   0  0  0  0  0  0
    1.5281    2.3510    0.0809 H   0  0  0  0  0  0
    3.2254    8.6687   -1.5078 H   0  0  0  0  0  0
  1  2  1  0  0  0
  1 24  1  0  0  0
  2  3  1  0  0  0
  2 27  1  0  0  0
  2 28  1  0  0  0
  3  8  2  0  0  0
  3  4  1  0  0  0
  4  7  2  0  0  0
  4 29  1  0  0  0
  5  7  1  0  0  0
  5  6  2  0  0  0
  5 30  1  0  0  0
  6  8  1  0  0  0
  6 31  1  0  0  0
  7 32  1  0  0  0
  8 33  1  0  0  0
  9 10  2  0  0  0
  9 21  1  0  0  0
  9 12  1  0  0  0
 10 11  1  0  0  0
 10 34  1  0  0  0
 11 14  2  0  0  0
 11 35  1  0  0  0
 12 13  2  0  0  0
 12 36  1  0  0  0
 13 14  1  0  0  0
 13 17  1  0  0  0
 14 15  1  0  0  0
 15 16  1  0  0  0
 16 17  2  0  0  0
 16 18  1  0  0  0
 17 37  1  0  0  0
 18 19  1  0  0  0
 18 20  2  0  0  0
 19 38  1  0  0  0
 19 39  1  0  0  0
 20 40  1  0  0  0
 20 45  1  0  0  0
 21 22  2  0  0  0
 21 26  1  0  0  0
 22 25  1  0  0  0
 22 41  1  0  0  0
 23 24  1  0  0  0
 23 25  2  0  0  0
 23 42  1  0  0  0
 24 26  2  0  0  0
 25 43  1  0  0  0
 26 44  1  0  0  0
M  CHG  1  20   1
M  END
> <chembl_id>
CHEMBL598170

> <chembl_pref_name>
None

> <s_m_source_file>
sdf/inactives_sanitized.sdf

> <i_m_source_file_index>
11

> <i_lp_mmshare_version>
49012

> <i_m_ct_stereo_status>
1

> <i_f3d_flags>
0

> <s_epik_input>
W2NIXTFbY0hdW2NIXVtjSF1bY0hdYzFbQ0gyXU9jKFtjSF0yKVtjSF1bY0hdW2NIXWMyLWMoW2NIXTMpW2NIXVtjSF1jKGMzNClzYyhbY0hdNCkvQyhbTkgyXSk9Ti9bSF0=

> <s_epik_cmdline>
J2VwaWtfcHl0aG9uJywgJy1waHQnLCAnMC41JywgJy1waCcsICc3LjUnLCAnLW50JywgJy1tYScsICcyMDAnLCAnLWltYWUnLCAnPGluZmlsZS5tYWU+JywgJy1vbWFlJywgJzxvdXRmaWxlLm1hZT4n

> <r_lp_tautomer_probability>
1

> <r_epik_Ionization_Penalty>
  0.0095

> <r_epik_Ionization_Penalty_Charging>
  0.0095

> <r_epik_Ionization_Penalty_Neutral>
  0.0000

> <r_epik_State_Penalty>
 -0.0000

> <r_epik_Charging_Adjusted_Penalty>
0.00945881282357717

> <i_epik_Tot_Q>
1

> <i_epik_Tot_abs_Q>
1

> <s_epik_Chemistry_Notes>
This compound has an imine and may undergo hydrolysis.

> <s_lp_Force_Field>
OPLS3e

> <r_lp_Energy>
32.868806

> <b_lp_Chiralities_Consistent>
1

> <s_lp_Variant>
sdf/inactives_sanitized.sdf:11-1

$$$$
sdf/inactives_sanitized.sdf:12
                    3D
 Schrodinger Suite 2020-1.
 54 57  0  0  1  0            999 V2000
   -0.0797   -0.0695    0.0521 C   0  0  0  0  0  0
   -0.8511    1.1427    0.0476 C   0  0  0  0  0  0
    2.0490   -0.8057    1.2357 C   0  0  0  0  0  0
    1.4516   -0.1069   -0.0059 C   0  0  1  0  0  0
   -0.9165   -1.1736    0.0741 C   0  0  0  0  0  0
    2.7129   -0.0054    2.0993 N   0  0  0  0  0  0
   -2.6181   -0.8201    0.1158 S   0  0  0  0  0  0
   -0.4286    2.4871    0.0083 C   0  0  0  0  0  0
    3.3708   -0.3338    3.3044 C   0  0  0  0  0  0
   -0.9014    4.9286   -0.0385 C   0  0  0  0  0  0
   -1.3555    3.5393    0.0075 C   0  0  0  0  0  0
   -2.2568    0.8932    0.0842 C   0  0  0  0  0  0
    3.8000   -1.6370    3.6158 C   0  0  0  0  0  0
   -1.5501    5.8431    0.6734 N   0  3  0  0  0  0
    1.9599   -0.7555   -1.3207 C   0  0  0  0  0  0
    1.8807   -2.0168    1.3877 O   0  0  0  0  0  0
    3.6271    0.7066    4.2202 C   0  0  0  0  0  0
   -2.7207    3.2424    0.0494 C   0  0  0  0  0  0
   -3.1909    1.9350    0.0875 C   0  0  0  0  0  0
    4.2821    0.4259    5.4246 C   0  0  0  0  0  0
    4.4511   -1.9015    4.8194 C   0  0  0  0  0  0
    0.1470    5.2386   -0.7926 N   0  0  0  0  0  0
    4.6895   -0.8716    5.7246 C   0  0  0  0  0  0
    1.5649    0.0263   -2.5688 C   0  0  0  0  0  0
    4.8568   -3.1592    5.1061 F   0  0  0  0  0  0
    3.2029    2.1446    3.9381 C   0  0  0  0  0  0
    0.4430   -0.3555   -3.3101 C   0  0  0  0  0  0
    2.3202    1.1348   -2.9614 C   0  0  0  0  0  0
    0.0770    0.3708   -4.4402 C   0  0  0  0  0  0
    1.9544    1.8603   -4.0920 C   0  0  0  0  0  0
    0.8345    1.4748   -4.8262 C   0  0  0  0  0  0
    1.8430    0.9111   -0.0087 H   0  0  0  0  0  0
   -0.6043   -2.2080    0.0704 H   0  0  0  0  0  0
    2.6878    0.9833    1.8989 H   0  0  0  0  0  0
    0.6235    2.7238   -0.0175 H   0  0  0  0  0  0
    3.6570   -2.4616    2.9357 H   0  0  0  0  0  0
   -2.3421    5.5690    1.2367 H   0  0  0  0  0  0
    3.0491   -0.8343   -1.3075 H   0  0  0  0  0  0
    1.6096   -1.7862   -1.4085 H   0  0  0  0  0  0
   -3.4404    4.0477    0.0417 H   0  0  0  0  0  0
   -4.2522    1.7334    0.1137 H   0  0  0  0  0  0
    4.4801    1.2147    6.1360 H   0  0  0  0  0  0
    0.4713    6.1936   -0.8386 H   0  0  0  0  0  0
    0.6087    4.5169   -1.3270 H   0  0  0  0  0  0
    5.1948   -1.0778    6.6568 H   0  0  0  0  0  0
    3.4565    2.8218    4.7549 H   0  0  0  0  0  0
    2.1252    2.1964    3.7790 H   0  0  0  0  0  0
    3.6862    2.5094    3.0313 H   0  0  0  0  0  0
   -0.1480   -1.2085   -3.0093 H   0  0  0  0  0  0
    3.1875    1.4350   -2.3913 H   0  0  0  0  0  0
   -0.7898    0.0791   -5.0150 H   0  0  0  0  0  0
    2.5365    2.7169   -4.3988 H   0  0  0  0  0  0
    0.5517    2.0366   -5.7043 H   0  0  0  0  0  0
   -1.2497    6.8067    0.6518 H   0  0  0  0  0  0
  1  2  1  0  0  0
  1  4  1  0  0  0
  1  5  2  0  0  0
  2  8  2  0  0  0
  2 12  1  0  0  0
  3  4  1  0  0  0
  3  6  1  0  0  0
  3 16  2  0  0  0
  4 15  1  0  0  0
  4 32  1  0  0  0
  5  7  1  0  0  0
  5 33  1  0  0  0
  6  9  1  0  0  0
  6 34  1  0  0  0
  7 12  1  0  0  0
  8 11  1  0  0  0
  8 35  1  0  0  0
  9 13  2  0  0  0
  9 17  1  0  0  0
 10 11  1  0  0  0
 10 14  2  0  0  0
 10 22  1  0  0  0
 11 18  2  0  0  0
 12 19  2  0  0  0
 13 21  1  0  0  0
 13 36  1  0  0  0
 14 37  1  0  0  0
 14 54  1  0  0  0
 15 24  1  0  0  0
 15 38  1  0  0  0
 15 39  1  0  0  0
 17 20  2  0  0  0
 17 26  1  0  0  0
 18 19  1  0  0  0
 18 40  1  0  0  0
 19 41  1  0  0  0
 20 23  1  0  0  0
 20 42  1  0  0  0
 21 25  1  0  0  0
 21 23  2  0  0  0
 22 43  1  0  0  0
 22 44  1  0  0  0
 23 45  1  0  0  0
 24 27  2  0  0  0
 24 28  1  0  0  0
 26 46  1  0  0  0
 26 47  1  0  0  0
 26 48  1  0  0  0
 27 29  1  0  0  0
 27 49  1  0  0  0
 28 30  2  0  0  0
 28 50  1  0  0  0
 29 31  2  0  0  0
 29 51  1  0  0  0
 30 31  1  0  0  0
 30 52  1  0  0  0
 31 53  1  0  0  0
M  CHG  1  14   1
M  END
> <chembl_id>
CHEMBL362648

> <chembl_pref_name>
None

> <s_m_source_file>
sdf/inactives_sanitized.sdf

> <i_m_source_file_index>
12

> <i_lp_mmshare_version>
49012

> <i_m_ct_stereo_status>
1

> <i_f3d_flags>
0

> <s_epik_input>
W0hdXE49QyhbTkgyXSlcYyhbY0hdMSlbY0hdW2NIXWMoYzEyKXNbY0hdYzJbQ0BIXShbQ0gyXWMzW2NIXVtjSF1bY0hdW2NIXVtjSF0zKUMoPU8pW05IXWM0W2NIXWMoRilbY0hdW2NIXWM0W0NIM10=

> <s_epik_cmdline>
J2VwaWtfcHl0aG9uJywgJy1waHQnLCAnMC41JywgJy1waCcsICc3LjUnLCAnLW50JywgJy1tYScsICcyMDAnLCAnLWltYWUnLCAnPGluZmlsZS5tYWU+JywgJy1vbWFlJywgJzxvdXRmaWxlLm1hZT4n

> <r_lp_tautomer_probability>
1

> <r_epik_Ionization_Penalty>
  0.0010

> <r_epik_Ionization_Penalty_Charging>
  0.0010

> <r_epik_Ionization_Penalty_Neutral>
  0.0000

> <r_epik_State_Penalty>
 -0.0000

> <r_epik_Charging_Adjusted_Penalty>
0.000984797499885888

> <i_epik_Tot_Q>
1

> <i_epik_Tot_abs_Q>
1

> <s_epik_Chemistry_Notes>
This compound has an imine and may undergo hydrolysis.

> <s_lp_Force_Field>
OPLS3e

> <r_lp_Energy>
36.688885

> <b_lp_Chiralities_Consistent>
1

> <s_lp_Variant>
sdf/inactives_sanitized.sdf:12-1

$$$$
sdf/inactives_sanitized.sdf:13
                    3D
 Schrodinger Suite 2020-1.
 65 68  0  0  1  0            999 V2000
   -0.8743   -0.8229   -1.5959 C   0  0  0  0  0  0
   -2.1289   -0.3904   -2.1475 C   0  0  0  0  0  0
   -0.3837   -1.9059   -2.3091 C   0  0  0  0  0  0
   -0.2303   -0.1769   -0.3617 C   0  0  2  0  0  0
   -1.3600   -2.4178   -3.6541 S   0  0  0  0  0  0
    5.2497    1.7916   -2.2620 C   0  0  2  0  0  0
   -2.9893    0.6460   -1.7331 C   0  0  0  0  0  0
    1.2978   -0.0146   -0.5339 C   0  0  0  0  0  0
    6.1588    1.1100   -1.2045 C   0  0  0  0  0  0
   -5.0864    1.9652   -1.9407 C   0  0  0  0  0  0
   -4.1961    0.8993   -2.3997 C   0  0  0  0  0  0
   -2.5266   -1.1668   -3.2775 C   0  0  0  0  0  0
    1.7181    1.1691   -1.0270 N   0  0  0  0  0  0
    3.0806    1.5091   -1.0032 N   0  0  2  0  0  0
   -5.7437    2.6910   -2.8379 N   0  3  0  0  0  0
    3.7649    1.3015   -2.2853 C   0  0  2  0  0  0
   -0.5893   -0.9540    0.9354 C   0  0  0  0  0  0
    2.0541   -0.9452   -0.2390 O   0  0  0  0  0  0
    5.7605    0.1931   -0.4812 O   0  0  0  0  0  0
   -4.5378    0.1147   -3.5049 C   0  0  0  0  0  0
   -3.7225   -0.9156   -3.9598 C   0  0  0  0  0  0
   -5.2160    2.1779   -0.6361 N   0  0  0  0  0  0
    7.4001    1.6447   -1.1712 O   0  0  0  0  0  0
   -2.0784   -0.9422    1.2646 C   0  0  0  0  0  0
    5.8723    1.7246   -3.6815 C   0  0  0  0  0  0
    3.6582   -0.1160   -2.9289 C   0  0  0  0  0  0
    8.3787    1.1454   -0.2712 C   0  0  0  0  0  0
   -2.6396    0.1633    1.9101 C   0  0  0  0  0  0
   -2.8837   -2.0271    0.9061 C   0  0  0  0  0  0
    5.7962    0.3120   -4.2921 C   0  0  0  0  0  0
    4.3450   -0.2051   -4.3093 C   0  0  0  0  0  0
   -4.2474   -2.0029    1.1854 C   0  0  0  0  0  0
   -4.0032    0.1862    2.1907 C   0  0  0  0  0  0
   -4.8010   -0.8963    1.8258 C   0  0  0  0  0  0
    0.5331   -2.4407   -2.1058 H   0  0  0  0  0  0
   -0.6190    0.8355   -0.2399 H   0  0  0  0  0  0
    5.2268    2.8422   -1.9698 H   0  0  0  0  0  0
   -2.7271    1.2560   -0.8827 H   0  0  0  0  0  0
    1.1073    1.9722   -1.0672 H   0  0  0  0  0  0
    3.5131    0.9857   -0.2541 H   0  0  0  0  0  0
   -5.6219    2.5021   -3.8224 H   0  0  0  0  0  0
    3.2646    1.9783   -2.9808 H   0  0  0  0  0  0
   -0.2386   -1.9867    0.8770 H   0  0  0  0  0  0
   -0.0581   -0.5293    1.7899 H   0  0  0  0  0  0
   -5.4688    0.2994   -4.0205 H   0  0  0  0  0  0
   -4.0140   -1.5112   -4.8131 H   0  0  0  0  0  0
   -5.8246    2.9112   -0.3027 H   0  0  0  0  0  0
   -4.7085    1.5988    0.0174 H   0  0  0  0  0  0
    5.3112    2.4007   -4.3289 H   0  0  0  0  0  0
    6.8865    2.1266   -3.7005 H   0  0  0  0  0  0
    4.1007   -0.8616   -2.2675 H   0  0  0  0  0  0
    2.6139   -0.4002   -3.0597 H   0  0  0  0  0  0
    9.3119    1.6944   -0.3975 H   0  0  0  0  0  0
    8.5787    0.0892   -0.4579 H   0  0  0  0  0  0
    8.0547    1.2594    0.7645 H   0  0  0  0  0  0
   -2.0220    1.0051    2.1886 H   0  0  0  0  0  0
   -2.4563   -2.8830    0.4040 H   0  0  0  0  0  0
    6.1995    0.3220   -5.3053 H   0  0  0  0  0  0
    6.4249   -0.3738   -3.7223 H   0  0  0  0  0  0
    4.3247   -1.2355   -4.6662 H   0  0  0  0  0  0
    3.7689    0.3748   -5.0321 H   0  0  0  0  0  0
   -4.8730   -2.8383    0.9073 H   0  0  0  0  0  0
   -4.4403    1.0390    2.6890 H   0  0  0  0  0  0
   -5.8588   -0.8790    2.0440 H   0  0  0  0  0  0
   -6.3612    3.4296   -2.5342 H   0  0  0  0  0  0
  1  2  1  0  0  0
  1  3  2  0  0  0
  1  4  1  0  0  0
  2  7  2  0  0  0
  2 12  1  0  0  0
  3  5  1  0  0  0
  3 35  1  0  0  0
  4  8  1  0  0  0
  4 17  1  0  0  0
  4 36  1  0  0  0
  5 12  1  0  0  0
  6 16  1  0  0  0
  6  9  1  0  0  0
  6 25  1  0  0  0
  6 37  1  0  0  0
  7 11  1  0  0  0
  7 38  1  0  0  0
  8 13  1  0  0  0
  8 18  2  0  0  0
  9 19  2  0  0  0
  9 23  1  0  0  0
 10 11  1  0  0  0
 10 15  2  0  0  0
 10 22  1  0  0  0
 11 20  2  0  0  0
 12 21  2  0  0  0
 13 14  1  0  0  0
 13 39  1  0  0  0
 14 16  1  0  0  0
 14 40  1  0  0  0
 15 41  1  0  0  0
 15 65  1  0  0  0
 16 26  1  0  0  0
 16 42  1  0  0  0
 17 24  1  0  0  0
 17 43  1  0  0  0
 17 44  1  0  0  0
 20 21  1  0  0  0
 20 45  1  0  0  0
 21 46  1  0  0  0
 22 47  1  0  0  0
 22 48  1  0  0  0
 23 27  1  0  0  0
 24 28  2  0  0  0
 24 29  1  0  0  0
 25 30  1  0  0  0
 25 49  1  0  0  0
 25 50  1  0  0  0
 26 31  1  0  0  0
 26 51  1  0  0  0
 26 52  1  0  0  0
 27 53  1  0  0  0
 27 54  1  0  0  0
 27 55  1  0  0  0
 28 33  1  0  0  0
 28 56  1  0  0  0
 29 32  2  0  0  0
 29 57  1  0  0  0
 30 31  1  0  0  0
 30 58  1  0  0  0
 30 59  1  0  0  0
 31 60  1  0  0  0
 31 61  1  0  0  0
 32 34  1  0  0  0
 32 62  1  0  0  0
 33 34  2  0  0  0
 33 63  1  0  0  0
 34 64  1  0  0  0
M  CHG  1  15   1
M  END
> <chembl_id>
CHEMBL361544

> <chembl_pref_name>
None

> <i_m_ct_stereo_status>
1

> <s_m_source_file>
sdf/inactives_sanitized.sdf

> <i_m_source_file_index>
13

> <i_lp_mmshare_version>
49012

> <i_f3d_flags>
0

> <s_epik_input>
W0hdXE49QyhbTkgyXSlcYyhbY0hdMSlbY0hdW2NIXWMoYzEyKXNbY0hdYzJbQ0BASF0oW0NIMl1jM1tjSF1bY0hdW2NIXVtjSF1bY0hdMylDKD1PKVtOSF1bTkhdW0NAQEhdKFtDQEhdNEMoPU8pT1tDSDNdKVtDSDJdW0NIMl1bQ0gyXVtDSDJdNA==

> <s_epik_cmdline>
J2VwaWtfcHl0aG9uJywgJy1waHQnLCAnMC41JywgJy1waCcsICc3LjUnLCAnLW50JywgJy1tYScsICcyMDAnLCAnLWltYWUnLCAnPGluZmlsZS5tYWU+JywgJy1vbWFlJywgJzxvdXRmaWxlLm1hZT4n

> <r_lp_tautomer_probability>
1

> <r_epik_Ionization_Penalty>
  0.0010

> <r_epik_Ionization_Penalty_Charging>
  0.0010

> <r_epik_Ionization_Penalty_Neutral>
  0.0000

> <r_epik_State_Penalty>
 -0.0000

> <r_epik_Charging_Adjusted_Penalty>
0.000984797499885888

> <i_epik_Tot_Q>
1

> <i_epik_Tot_abs_Q>
1

> <s_epik_Chemistry_Notes>
This compound has an ester and may undergo hydrolysis at high or low pH. This compound has an imine and may undergo hydrolysis.

> <s_lp_Force_Field>
OPLS3e

> <r_lp_Energy>
39.591704

> <b_lp_Chiralities_Consistent>
1

> <s_lp_Variant>
sdf/inactives_sanitized.sdf:13-1

$$$$
sdf/inactives_sanitized.sdf:14
                    3D
 Schrodinger Suite 2020-1.
 67 71  0  0  1  0            999 V2000
   -4.7743    3.4582    3.2550 S   0  0  0  0  0  0
    2.6593   -0.8446    0.7117 C   0  0  0  0  0  0
    2.7522   -0.1809    1.9916 C   0  0  0  0  0  0
    0.4100   -0.2395   -0.2662 C   0  0  0  0  0  0
    1.9306   -0.3231   -0.5272 C   0  0  2  0  0  0
    3.3679   -2.0262    0.8692 C   0  0  0  0  0  0
   -5.8443    3.4338    1.8016 C   0  0  0  0  0  0
    3.8705   -2.1231    2.1398 N   0  0  0  0  0  0
    2.2584    1.0354    2.4921 C   0  0  0  0  0  0
   -5.4158    2.9062    0.5628 C   0  0  0  0  0  0
    1.9657    2.6706    4.3477 C   0  0  0  0  0  0
    2.5002    1.4110    3.8218 C   0  0  0  0  0  0
   -0.1195    1.0030   -0.2940 N   0  0  0  0  0  0
    3.5126   -1.0107    2.8660 C   0  0  0  0  0  0
   -4.0677    2.1738    3.3097 O   0  0  0  0  0  0
   -4.0362    4.7247    3.2074 O   0  0  0  0  0  0
   -4.0412    2.3869    0.3329 C   0  0  0  0  0  0
    1.6659    2.7619    5.6380 N   0  3  0  0  0  0
   -5.8311    3.5178    4.6568 N   0  0  0  0  0  0
    2.2577   -1.1447   -1.8073 C   0  0  0  0  0  0
   -0.2211   -1.2713   -0.0304 O   0  0  0  0  0  0
    3.2561    0.5572    4.6367 C   0  0  0  0  0  0
    3.7777   -0.6559    4.1900 C   0  0  0  0  0  0
   -1.4523    1.4024   -0.0950 C   0  0  0  0  0  0
   -2.9332    3.2307    0.4534 C   0  0  0  0  0  0
   -3.8445    1.0510   -0.0295 C   0  0  0  0  0  0
    1.7881    3.6969    3.5235 N   0  0  0  0  0  0
   -1.6478    2.7431    0.2396 C   0  0  0  0  0  0
   -2.5609    0.5564   -0.2434 C   0  0  0  0  0  0
    1.6574   -0.5775   -3.0915 C   0  0  0  0  0  0
   -7.1385    3.9563    1.9217 C   0  0  0  0  0  0
   -6.3217    2.8800   -0.5063 C   0  0  0  0  0  0
    0.4970   -1.1411   -3.6301 C   0  0  0  0  0  0
    2.2643    0.5122   -3.7217 C   0  0  0  0  0  0
   -8.0181    3.9317    0.8425 C   0  0  0  0  0  0
   -7.6119    3.3868   -0.3710 C   0  0  0  0  0  0
    1.7108    1.0383   -4.8861 C   0  0  0  0  0  0
   -0.0561   -0.6147   -4.7942 C   0  0  0  0  0  0
    0.5532    0.4727   -5.4168 C   0  0  0  0  0  0
    2.3070    0.6861   -0.7085 H   0  0  0  0  0  0
    3.5562   -2.8258    0.1674 H   0  0  0  0  0  0
    4.4139   -2.9157    2.4507 H   0  0  0  0  0  0
    1.6714    1.6766    1.8521 H   0  0  0  0  0  0
    0.5298    1.7647   -0.4233 H   0  0  0  0  0  0
    1.2884    3.6222    6.0074 H   0  0  0  0  0  0
   -6.3710    4.3823    4.7478 H   0  0  0  0  0  0
   -6.3887    2.6724    4.8046 H   0  0  0  0  0  0
    3.3392   -1.1965   -1.9456 H   0  0  0  0  0  0
    1.9367   -2.1820   -1.6909 H   0  0  0  0  0  0
    3.4558    0.8433    5.6588 H   0  0  0  0  0  0
    4.3563   -1.2887    4.8474 H   0  0  0  0  0  0
   -3.0674    4.2705    0.7137 H   0  0  0  0  0  0
   -4.6907    0.3886   -0.1422 H   0  0  0  0  0  0
    1.4147    4.5665    3.8752 H   0  0  0  0  0  0
    2.0270    3.6021    2.5474 H   0  0  0  0  0  0
   -0.8068    3.4140    0.3430 H   0  0  0  0  0  0
   -2.4560   -0.4768   -0.5351 H   0  0  0  0  0  0
   -7.4788    4.3840    2.8525 H   0  0  0  0  0  0
   -6.0186    2.4752   -1.4614 H   0  0  0  0  0  0
    0.0199   -1.9801   -3.1446 H   0  0  0  0  0  0
    3.1602    0.9526   -3.3090 H   0  0  0  0  0  0
   -9.0152    4.3333    0.9482 H   0  0  0  0  0  0
   -8.2924    3.3643   -1.2096 H   0  0  0  0  0  0
    2.1758    1.8813   -5.3755 H   0  0  0  0  0  0
   -0.9537   -1.0467   -5.2113 H   0  0  0  0  0  0
    0.1235    0.8812   -6.3197 H   0  0  0  0  0  0
    1.8005    1.9634    6.2410 H   0  0  0  0  0  0
  1  7  1  0  0  0
  1 15  2  0  0  0
  1 16  2  0  0  0
  1 19  1  0  0  0
  2  5  1  0  0  0
  2  3  1  0  0  0
  2  6  2  0  0  0
  3  9  2  0  0  0
  3 14  1  0  0  0
  4 13  1  0  0  0
  4  5  1  0  0  0
  4 21  2  0  0  0
  5 20  1  0  0  0
  5 40  1  0  0  0
  6  8  1  0  0  0
  6 41  1  0  0  0
  7 10  2  0  0  0
  7 31  1  0  0  0
  8 14  1  0  0  0
  8 42  1  0  0  0
  9 12  1  0  0  0
  9 43  1  0  0  0
 10 17  1  0  0  0
 10 32  1  0  0  0
 11 12  1  0  0  0
 11 18  2  0  0  0
 11 27  1  0  0  0
 12 22  2  0  0  0
 13 24  1  0  0  0
 13 44  1  0  0  0
 14 23  2  0  0  0
 17 25  2  0  0  0
 17 26  1  0  0  0
 18 45  1  0  0  0
 18 67  1  0  0  0
 19 46  1  0  0  0
 19 47  1  0  0  0
 20 30  1  0  0  0
 20 48  1  0  0  0
 20 49  1  0  0  0
 22 23  1  0  0  0
 22 50  1  0  0  0
 23 51  1  0  0  0
 24 29  1  0  0  0
 24 28  2  0  0  0
 25 28  1  0  0  0
 25 52  1  0  0  0
 26 29  2  0  0  0
 26 53  1  0  0  0
 27 54  1  0  0  0
 27 55  1  0  0  0
 28 56  1  0  0  0
 29 57  1  0  0  0
 30 33  2  0  0  0
 30 34  1  0  0  0
 31 35  2  0  0  0
 31 58  1  0  0  0
 32 36  2  0  0  0
 32 59  1  0  0  0
 33 38  1  0  0  0
 33 60  1  0  0  0
 34 37  2  0  0  0
 34 61  1  0  0  0
 35 36  1  0  0  0
 35 62  1  0  0  0
 36 63  1  0  0  0
 37 39  1  0  0  0
 37 64  1  0  0  0
 38 39  2  0  0  0
 38 65  1  0  0  0
 39 66  1  0  0  0
M  CHG  1  18   1
M  END
> <chembl_id>
CHEMBL361607

> <chembl_pref_name>
None

> <s_m_source_file>
sdf/inactives_sanitized.sdf

> <i_m_source_file_index>
14

> <i_lp_mmshare_version>
49012

> <i_m_ct_stereo_status>
1

> <i_f3d_flags>
0

> <s_epik_input>
W2NIXTFbY0hdW2NIXVtjSF1jKGMxUyg9TykoPU8pW05IMl0pLWMyW2NIXVtjSF1jKFtjSF1bY0hdMilbTkhdQyg9TylbQ0BIXShbQ0gyXWMzW2NIXVtjSF1bY0hdW2NIXVtjSF0zKWM0W2NIXVtuSF1jKGM0NSlbY0hdW2NIXWMoW2NIXTUpL0MoPU4vW0hdKVtOSDJd

> <s_epik_cmdline>
J2VwaWtfcHl0aG9uJywgJy1waHQnLCAnMC41JywgJy1waCcsICc3LjUnLCAnLW50JywgJy1tYScsICcyMDAnLCAnLWltYWUnLCAnPGluZmlsZS5tYWU+JywgJy1vbWFlJywgJzxvdXRmaWxlLm1hZT4n

> <r_lp_tautomer_probability>
1

> <r_epik_Ionization_Penalty>
  0.0033

> <r_epik_Ionization_Penalty_Charging>
  0.0010

> <r_epik_Ionization_Penalty_Neutral>
  0.0024

> <r_epik_State_Penalty>
 -0.0000

> <r_epik_Charging_Adjusted_Penalty>
0.000984797499885888

> <i_epik_Tot_Q>
1

> <i_epik_Tot_abs_Q>
1

> <s_epik_Chemistry_Notes>
This compound has an imine and may undergo hydrolysis.

> <s_lp_Force_Field>
OPLS3e

> <r_lp_Energy>
44.071414

> <b_lp_Chiralities_Consistent>
1

> <s_lp_Variant>
sdf/inactives_sanitized.sdf:14-1

$$$$
sdf/inactives_sanitized.sdf:15
                    3D
 Schrodinger Suite 2020-1.
 53 57  0  0  1  0            999 V2000
    0.2913    0.0243    0.3473 C   0  0  0  0  0  0
   -0.5445    1.1811    0.1854 C   0  0  0  0  0  0
    2.6257   -0.7242    1.0822 C   0  0  0  0  0  0
    1.7878    0.0088    0.0053 C   0  0  1  0  0  0
   -0.4554   -1.0502    0.8030 C   0  0  0  0  0  0
   -2.1400   -0.7203    1.0840 S   0  0  0  0  0  0
   -0.2194    2.4720   -0.2756 C   0  0  0  0  0  0
    4.9416   -1.6610    7.1357 N   0  0  0  0  0  0
    2.6103   -0.1586    2.3108 N   0  0  0  0  0  0
   -0.8455    4.7973   -0.8910 C   0  0  0  0  0  0
   -1.1962    3.4712   -0.3846 C   0  0  0  0  0  0
   -1.9018    0.9304    0.5488 C   0  0  0  0  0  0
    4.2490   -2.2112    4.9613 C   0  0  0  0  0  0
    5.2675   -2.9193    7.0521 C   0  0  0  0  0  0
    4.9088   -3.7324    5.5492 S   0  0  0  0  0  0
    4.3661   -1.2298    5.9812 C   0  0  0  0  0  0
    3.6752   -1.9062    3.7199 C   0  0  0  0  0  0
    3.2204   -0.5936    3.5031 C   0  0  0  0  0  0
   -1.4175    5.8674   -0.3513 N   0  3  0  0  0  0
    2.0318   -0.5273   -1.4350 C   0  0  0  0  0  0
    3.2547   -1.7432    0.7908 O   0  0  0  0  0  0
   -2.5105    3.1792   -0.0086 C   0  0  0  0  0  0
   -2.8832    1.9242    0.4596 C   0  0  0  0  0  0
    3.8981    0.0715    5.7543 C   0  0  0  0  0  0
    0.0354    4.8954   -1.8803 N   0  0  0  0  0  0
    3.3267    0.3651    4.5158 C   0  0  0  0  0  0
    1.3975    0.3305   -2.5246 C   0  0  0  0  0  0
    0.1533   -0.0199   -3.0568 C   0  0  0  0  0  0
    2.0543    1.4788   -2.9758 C   0  0  0  0  0  0
    1.4655    2.2781   -3.9520 C   0  0  0  0  0  0
   -0.4360    0.7812   -4.0311 C   0  0  0  0  0  0
    0.2223    1.9267   -4.4736 C   0  0  0  0  0  0
    2.1806    1.0265    0.0251 H   0  0  0  0  0  0
   -0.0845   -2.0463    0.9977 H   0  0  0  0  0  0
    0.7952    2.7018   -0.5620 H   0  0  0  0  0  0
    2.1367    0.7297    2.3857 H   0  0  0  0  0  0
    5.7377   -3.4535    7.8647 H   0  0  0  0  0  0
    3.5822   -2.6803    2.9747 H   0  0  0  0  0  0
   -2.0815    5.7550    0.4011 H   0  0  0  0  0  0
    3.1024   -0.5830   -1.6433 H   0  0  0  0  0  0
    1.6769   -1.5559   -1.5270 H   0  0  0  0  0  0
   -3.2699    3.9425   -0.0938 H   0  0  0  0  0  0
   -3.9083    1.7232    0.7360 H   0  0  0  0  0  0
    3.9737    0.8326    6.5171 H   0  0  0  0  0  0
    0.2884    5.8032   -2.2424 H   0  0  0  0  0  0
    0.4421    4.0579   -2.2718 H   0  0  0  0  0  0
    2.9646    1.3694    4.3455 H   0  0  0  0  0  0
   -0.3609   -0.9043   -2.7092 H   0  0  0  0  0  0
    3.0155    1.7544   -2.5665 H   0  0  0  0  0  0
    1.9701    3.1664   -4.3027 H   0  0  0  0  0  0
   -1.3991    0.5158   -4.4416 H   0  0  0  0  0  0
   -0.2351    2.5465   -5.2309 H   0  0  0  0  0  0
   -1.1881    6.7886   -0.6946 H   0  0  0  0  0  0
  1  2  1  0  0  0
  1  4  1  0  0  0
  1  5  2  0  0  0
  2  7  2  0  0  0
  2 12  1  0  0  0
  3  4  1  0  0  0
  3  9  1  0  0  0
  3 21  2  0  0  0
  4 20  1  0  0  0
  4 33  1  0  0  0
  5  6  1  0  0  0
  5 34  1  0  0  0
  6 12  1  0  0  0
  7 11  1  0  0  0
  7 35  1  0  0  0
  8 16  1  0  0  0
  8 14  2  0  0  0
  9 18  1  0  0  0
  9 36  1  0  0  0
 10 11  1  0  0  0
 10 19  2  0  0  0
 10 25  1  0  0  0
 11 22  2  0  0  0
 12 23  2  0  0  0
 13 17  2  0  0  0
 13 15  1  0  0  0
 13 16  1  0  0  0
 14 15  1  0  0  0
 14 37  1  0  0  0
 16 24  2  0  0  0
 17 18  1  0  0  0
 17 38  1  0  0  0
 18 26  2  0  0  0
 19 39  1  0  0  0
 19 53  1  0  0  0
 20 27  1  0  0  0
 20 40  1  0  0  0
 20 41  1  0  0  0
 22 23  1  0  0  0
 22 42  1  0  0  0
 23 43  1  0  0  0
 24 26  1  0  0  0
 24 44  1  0  0  0
 25 45  1  0  0  0
 25 46  1  0  0  0
 26 47  1  0  0  0
 27 28  2  0  0  0
 27 29  1  0  0  0
 28 31  1  0  0  0
 28 48  1  0  0  0
 29 30  2  0  0  0
 29 49  1  0  0  0
 30 32  1  0  0  0
 30 50  1  0  0  0
 31 32  2  0  0  0
 31 51  1  0  0  0
 32 52  1  0  0  0
M  CHG  1  19   1
M  END
> <chembl_id>
CHEMBL182736

> <chembl_pref_name>
None

> <s_m_source_file>
sdf/inactives_sanitized.sdf

> <i_m_source_file_index>
15

> <i_lp_mmshare_version>
49012

> <i_m_ct_stereo_status>
1

> <i_f3d_flags>
0

> <s_epik_input>
W0hdXE49QyhbTkgyXSlcYyhbY0hdMSlbY0hdW2NIXWMoYzEyKXNbY0hdYzJbQ0BIXShbQ0gyXWMzW2NIXVtjSF1bY0hdW2NIXVtjSF0zKUMoPU8pW05IXWMoW2NIXTQpW2NIXVtjSF1jKGM0NSluW2NIXXM1

> <s_epik_cmdline>
J2VwaWtfcHl0aG9uJywgJy1waHQnLCAnMC41JywgJy1waCcsICc3LjUnLCAnLW50JywgJy1tYScsICcyMDAnLCAnLWltYWUnLCAnPGluZmlsZS5tYWU+JywgJy1vbWFlJywgJzxvdXRmaWxlLm1hZT4n

> <r_lp_tautomer_probability>
1

> <r_epik_Ionization_Penalty>
  0.0010

> <r_epik_Ionization_Penalty_Charging>
  0.0010

> <r_epik_Ionization_Penalty_Neutral>
  0.0000

> <r_epik_State_Penalty>
 -0.0000

> <r_epik_Charging_Adjusted_Penalty>
0.000984797499885888

> <i_epik_Tot_Q>
1

> <i_epik_Tot_abs_Q>
1

> <s_epik_Chemistry_Notes>
This compound has an imine and may undergo hydrolysis.

> <s_lp_Force_Field>
OPLS3e

> <r_lp_Energy>
36.856301

> <b_lp_Chiralities_Consistent>
1

> <s_lp_Variant>
sdf/inactives_sanitized.sdf:15-1

$$$$
sdf/inactives_sanitized.sdf:16
                    3D
 Schrodinger Suite 2020-1.
 58 61  0  0  1  0            999 V2000
    0.2005    0.1418   -0.4965 C   0  0  0  0  0  0
   -0.6022    1.1926   -0.0564 N   0  0  0  0  0  0
   -1.8995    0.9459   -0.3377 N   0  0  0  0  0  0
   -1.9792   -0.2812   -0.7977 C   0  0  0  0  0  0
   -0.7020   -0.8262   -0.9246 C   0  0  0  0  0  0
    1.6425    0.1087   -0.6023 C   0  0  0  0  0  0
    7.0913   -4.2226    2.2721 S   0  0  0  0  0  0
   -3.3244   -0.8869   -1.1531 C   0  0  0  0  0  0
    8.0331   -3.8953    0.7643 C   0  0  0  0  0  0
    2.1586   -1.1195   -0.3740 N   0  0  0  0  0  0
   -0.2398    2.5074    0.3596 C   0  0  0  0  0  0
    7.5140   -3.1250   -0.3020 C   0  0  0  0  0  0
    6.1289   -2.5826   -0.3203 C   0  0  0  0  0  0
    3.5021   -1.5474   -0.3663 C   0  0  0  0  0  0
    3.7229   -2.9285   -0.2769 C   0  0  0  0  0  0
    5.0220   -3.4360   -0.2594 C   0  0  0  0  0  0
    6.2898   -3.0302    2.5706 O   0  0  0  0  0  0
    6.4422   -5.5241    2.0819 O   0  0  0  0  0  0
    2.2844    1.1203   -0.8859 O   0  0  0  0  0  0
    0.8672    2.7031    1.1983 C   0  0  0  0  0  0
    5.9067   -1.2055   -0.4184 C   0  0  0  0  0  0
    4.6120   -0.6883   -0.4379 C   0  0  0  0  0  0
   -3.2125   -2.1825   -1.4478 F   0  0  0  0  0  0
   -4.1873   -0.7805   -0.1420 F   0  0  0  0  0  0
   -3.8588   -0.2782   -2.2116 F   0  0  0  0  0  0
    2.6813   -3.7927   -0.2088 F   0  0  0  0  0  0
    8.3676   -4.3916    3.6571 C   0  0  0  0  0  0
    1.2446    3.9875    1.6008 C   0  0  0  0  0  0
    3.7513    4.3597    1.7220 N   0  3  0  0  0  0
   -0.9857    3.6280   -0.0443 C   0  0  0  0  0  0
    9.3221   -4.4344    0.6626 C   0  0  0  0  0  0
    8.3330   -2.8751   -1.4119 C   0  0  0  0  0  0
   -0.6204    4.9088    0.3680 C   0  0  0  0  0  0
    2.4484    4.1789    2.5053 C   0  0  0  0  0  0
    0.4919    5.0894    1.1877 C   0  0  0  0  0  0
   10.1135   -4.1838   -0.4551 C   0  0  0  0  0  0
    9.6221   -3.3959   -1.4900 C   0  0  0  0  0  0
   -0.4640   -1.7992   -1.3309 H   0  0  0  0  0  0
    1.4921   -1.8554   -0.1896 H   0  0  0  0  0  0
    5.1690   -4.5045   -0.1934 H   0  0  0  0  0  0
    1.4385    1.8561    1.5500 H   0  0  0  0  0  0
    6.7450   -0.5258   -0.4700 H   0  0  0  0  0  0
    4.5085    0.3826   -0.4974 H   0  0  0  0  0  0
    7.8391   -4.4543    4.6080 H   0  0  0  0  0  0
    9.0161   -3.5159    3.6532 H   0  0  0  0  0  0
    8.9508   -5.2996    3.5099 H   0  0  0  0  0  0
    4.5264    4.4747    2.3593 H   0  0  0  0  0  0
    3.6932    5.1787    1.1335 H   0  0  0  0  0  0
   -1.8473    3.5192   -0.6875 H   0  0  0  0  0  0
    9.7303   -5.0498    1.4486 H   0  0  0  0  0  0
    7.9606   -2.2834   -2.2361 H   0  0  0  0  0  0
   -1.1998    5.7629    0.0491 H   0  0  0  0  0  0
    2.3721    5.0763    3.1213 H   0  0  0  0  0  0
    2.6328    3.3139    3.1445 H   0  0  0  0  0  0
    0.7655    6.0871    1.4997 H   0  0  0  0  0  0
   11.1087   -4.5991   -0.5174 H   0  0  0  0  0  0
   10.2341   -3.1980   -2.3577 H   0  0  0  0  0  0
    3.9259    3.5498    1.1440 H   0  0  0  0  0  0
  1  2  1  0  0  0
  1  5  2  0  0  0
  1  6  1  0  0  0
  2  3  1  0  0  0
  2 11  1  0  0  0
  3  4  2  0  0  0
  4  5  1  0  0  0
  4  8  1  0  0  0
  5 38  1  0  0  0
  6 10  1  0  0  0
  6 19  2  0  0  0
  7  9  1  0  0  0
  7 17  2  0  0  0
  7 18  2  0  0  0
  7 27  1  0  0  0
  8 23  1  0  0  0
  8 24  1  0  0  0
  8 25  1  0  0  0
  9 12  2  0  0  0
  9 31  1  0  0  0
 10 14  1  0  0  0
 10 39  1  0  0  0
 11 20  2  0  0  0
 11 30  1  0  0  0
 12 13  1  0  0  0
 12 32  1  0  0  0
 13 16  2  0  0  0
 13 21  1  0  0  0
 14 15  2  0  0  0
 14 22  1  0  0  0
 15 16  1  0  0  0
 15 26  1  0  0  0
 16 40  1  0  0  0
 20 28  1  0  0  0
 20 41  1  0  0  0
 21 22  2  0  0  0
 21 42  1  0  0  0
 22 43  1  0  0  0
 27 44  1  0  0  0
 27 45  1  0  0  0
 27 46  1  0  0  0
 28 34  1  0  0  0
 28 35  2  0  0  0
 29 34  1  0  0  0
 29 47  1  0  0  0
 29 48  1  0  0  0
 29 58  1  0  0  0
 30 33  2  0  0  0
 30 49  1  0  0  0
 31 36  2  0  0  0
 31 50  1  0  0  0
 32 37  2  0  0  0
 32 51  1  0  0  0
 33 35  1  0  0  0
 33 52  1  0  0  0
 34 53  1  0  0  0
 34 54  1  0  0  0
 35 55  1  0  0  0
 36 37  1  0  0  0
 36 56  1  0  0  0
 37 57  1  0  0  0
M  CHG  1  29   1
M  END
> <chembl_id>
CHEMBL176140

> <chembl_pref_name>
None

> <s_m_source_file>
sdf/inactives_sanitized.sdf

> <i_m_source_file_index>
16

> <i_lp_mmshare_version>
49012

> <i_m_ct_stereo_status>
1

> <i_f3d_flags>
0

> <s_epik_input>
W2NIXTFbY0hdW2NIXWMoW0NIMl1bTkgyXSlbY0hdYzEtbihuYyhbY0hdMilDKEYpKEYpRiljMkMoPU8pW05IXWMoW2NIXVtjSF0zKWMoRilbY0hdYzMtYyhjNFMoPU8pKD1PKVtDSDNdKVtjSF1bY0hdW2NIXVtjSF00

> <s_epik_cmdline>
J2VwaWtfcHl0aG9uJywgJy1waHQnLCAnMC41JywgJy1waCcsICc3LjUnLCAnLW50JywgJy1tYScsICcyMDAnLCAnLWltYWUnLCAnPGluZmlsZS5tYWU+JywgJy1vbWFlJywgJzxvdXRmaWxlLm1hZT4n

> <r_lp_tautomer_probability>
1

> <r_epik_Ionization_Penalty>
  0.0972

> <r_epik_Ionization_Penalty_Charging>
  0.0972

> <r_epik_Ionization_Penalty_Neutral>
  0.0000

> <r_epik_State_Penalty>
  0.0873

> <r_epik_Charging_Adjusted_Penalty>
0.184534727243865

> <i_epik_Tot_Q>
1

> <i_epik_Tot_abs_Q>
1

> <s_lp_Force_Field>
OPLS3e

> <r_lp_Energy>
54.049367

> <b_lp_Chiralities_Consistent>
1

> <s_lp_Variant>
sdf/inactives_sanitized.sdf:16-1

$$$$
sdf/inactives_sanitized.sdf:17
                    3D
 Schrodinger Suite 2020-1.
 52 55  0  0  1  0            999 V2000
   -1.9695    1.0606   -0.2776 N   0  0  0  0  0  0
   -0.6923    1.2953    0.0785 N   0  0  0  0  0  0
   -0.0200    0.1089    0.3317 C   0  0  0  0  0  0
   -0.9509   -0.8897    0.0979 C   0  0  0  0  0  0
   -2.1435   -0.2498   -0.2755 C   0  0  0  0  0  0
   -0.2499    2.6365    0.0852 C   0  0  0  0  0  0
    0.7832    3.0326   -0.7677 C   0  0  0  0  0  0
    1.2096    4.3573   -0.7652 C   0  0  0  0  0  0
   -0.8641    3.5674    0.9271 C   0  0  0  0  0  0
   -0.4332    4.8912    0.9254 C   0  0  0  0  0  0
    0.6108    5.2957    0.0772 C   0  0  0  0  0  0
    1.3715    0.0410    0.7980 C   0  0  0  0  0  0
    2.0324    1.0339    1.1103 O   0  0  0  0  0  0
    1.9801   -1.3725    0.9021 C   0  0  0  0  0  0
    3.4408   -1.3604    1.3464 C   0  0  0  0  0  0
    4.4579   -1.2860    0.3907 C   0  0  0  0  0  0
    5.7953   -1.2759    0.7847 C   0  0  0  0  0  0
    6.1386   -1.3450    2.1445 C   0  0  0  0  0  0
    5.1119   -1.4196    3.0987 C   0  0  0  0  0  0
    3.7740   -1.4296    2.7038 C   0  0  0  0  0  0
    7.4982   -1.3278    2.5519 N   0  0  0  0  0  0
    7.8744   -0.4447    3.5544 C   0  0  0  0  0  0
    9.1107   -0.3660    4.0852 C   0  0  0  0  0  0
   10.1104   -1.2685    3.5445 C   0  0  0  0  0  0
    9.7621   -2.1344    2.5641 C   0  0  0  0  0  0
    8.3960   -2.2581    2.0493 C   0  0  0  0  0  0
    8.1091   -3.1692    1.2695 O   0  0  0  0  0  0
    2.8037   -1.5040    3.6443 F   0  0  0  0  0  0
   -3.3718   -0.9406   -0.6036 C   0  0  0  0  0  0
   -3.4550   -2.1677   -0.5767 O   0  0  0  0  0  0
   -4.4092   -0.1639   -0.9391 N   0  0  0  0  0  0
    1.1028    6.5851    0.0088 O   0  0  0  0  0  0
    0.5392    7.5895    0.8456 C   0  0  0  0  0  0
   -0.7938   -1.9545    0.1971 H   0  0  0  0  0  0
    1.2569    2.3205   -1.4283 H   0  0  0  0  0  0
    2.0118    4.6586   -1.4231 H   0  0  0  0  0  0
   -1.6680    3.2688    1.5849 H   0  0  0  0  0  0
   -0.9211    5.5889    1.5888 H   0  0  0  0  0  0
    1.3906   -1.9638    1.6036 H   0  0  0  0  0  0
    1.9025   -1.8649   -0.0679 H   0  0  0  0  0  0
    4.2133   -1.2306   -0.6602 H   0  0  0  0  0  0
    6.5639   -1.2092    0.0278 H   0  0  0  0  0  0
    5.3456   -1.4789    4.1521 H   0  0  0  0  0  0
    7.0755    0.2074    3.8804 H   0  0  0  0  0  0
    9.3510    0.3458    4.8614 H   0  0  0  0  0  0
   11.1305   -1.2257    3.8980 H   0  0  0  0  0  0
   10.5161   -2.7895    2.1523 H   0  0  0  0  0  0
   -4.3094    0.8407   -0.9511 H   0  0  0  0  0  0
   -5.2966   -0.5798   -1.1819 H   0  0  0  0  0  0
    1.0427    8.5379    0.6584 H   0  0  0  0  0  0
    0.6700    7.3494    1.9020 H   0  0  0  0  0  0
   -0.5226    7.7336    0.6393 H   0  0  0  0  0  0
  1  5  2  0  0  0
  1  2  1  0  0  0
  2  6  1  0  0  0
  2  3  1  0  0  0
  3  4  2  0  0  0
  3 12  1  0  0  0
  4  5  1  0  0  0
  4 34  1  0  0  0
  5 29  1  0  0  0
  6  9  2  0  0  0
  6  7  1  0  0  0
  7  8  2  0  0  0
  7 35  1  0  0  0
  8 11  1  0  0  0
  8 36  1  0  0  0
  9 10  1  0  0  0
  9 37  1  0  0  0
 10 11  2  0  0  0
 10 38  1  0  0  0
 11 32  1  0  0  0
 12 13  2  0  0  0
 12 14  1  0  0  0
 14 15  1  0  0  0
 14 39  1  0  0  0
 14 40  1  0  0  0
 15 16  2  0  0  0
 15 20  1  0  0  0
 16 17  1  0  0  0
 16 41  1  0  0  0
 17 18  2  0  0  0
 17 42  1  0  0  0
 18 19  1  0  0  0
 18 21  1  0  0  0
 19 20  2  0  0  0
 19 43  1  0  0  0
 20 28  1  0  0  0
 21 22  1  0  0  0
 21 26  1  0  0  0
 22 23  2  0  0  0
 22 44  1  0  0  0
 23 24  1  0  0  0
 23 45  1  0  0  0
 24 25  2  0  0  0
 24 46  1  0  0  0
 25 26  1  0  0  0
 25 47  1  0  0  0
 26 27  2  0  0  0
 29 30  2  0  0  0
 29 31  1  0  0  0
 31 48  1  0  0  0
 31 49  1  0  0  0
 32 33  1  0  0  0
 33 50  1  0  0  0
 33 51  1  0  0  0
 33 52  1  0  0  0
M  END
> <chembl_id>
CHEMBL403042

> <chembl_pref_name>
None

> <s_m_source_file>
sdf/inactives_sanitized.sdf

> <i_m_source_file_index>
17

> <i_lp_mmshare_version>
49012

> <i_m_ct_stereo_status>
1

> <i_f3d_flags>
0

> <s_epik_input>
W2NIXTFbY0hdYyhPW0NIM10pW2NIXVtjSF1jMS1uMm5jKEMoPU8pW05IMl0pW2NIXWMyQyg9TylbQ0gyXWMzW2NIXVtjSF1jKFtjSF1jM0YpLW40W2NIXVtjSF1bY0hdW2NIXWM0PU8=

> <s_epik_cmdline>
J2VwaWtfcHl0aG9uJywgJy1waHQnLCAnMC41JywgJy1waCcsICc3LjUnLCAnLW50JywgJy1tYScsICcyMDAnLCAnLWltYWUnLCAnPGluZmlsZS5tYWU+JywgJy1vbWFlJywgJzxvdXRmaWxlLm1hZT4n

> <r_lp_tautomer_probability>
1

> <r_epik_Ionization_Penalty>
  0.0000

> <r_epik_Ionization_Penalty_Charging>
  0.0000

> <r_epik_Ionization_Penalty_Neutral>
  0.0000

> <r_epik_State_Penalty>
 -0.0000

> <r_epik_Charging_Adjusted_Penalty>
9.88443071754712e-08

> <i_epik_Tot_Q>
0

> <i_epik_Tot_abs_Q>
0

> <s_lp_Force_Field>
OPLS3e

> <r_lp_Energy>
69.597365

> <b_lp_Chiralities_Consistent>
1

> <s_lp_Variant>
sdf/inactives_sanitized.sdf:17-1

$$$$
sdf/inactives_sanitized.sdf:18
                    3D
 Schrodinger Suite 2020-1.
 77 80  0  0  1  0            999 V2000
   -1.1745   -1.3863   -0.2854 N   0  0  0  0  0  0
   -2.5346   -1.2226   -0.6156 C   0  0  0  0  0  0
   -3.2660   -2.3998   -0.8201 C   0  0  0  0  0  0
   -4.6210   -2.3858   -1.1512 C   0  0  0  0  0  0
   -4.5284    0.0769   -1.0825 C   0  0  0  0  0  0
   -5.2270   -1.1331   -1.2739 C   0  0  0  0  0  0
   -6.5354   -0.9012   -1.5867 O   0  0  0  0  0  0
   -6.6945    0.4543   -1.6005 C   0  0  0  0  0  0
   -5.5018    1.0994   -1.3017 C   0  0  0  0  0  0
   -8.0820    0.9485   -1.9256 C   0  0  0  0  0  0
   -3.1653    0.0286   -0.7523 C   0  0  0  0  0  0
    0.7821    1.7110    0.4974 C   0  0  2  0  0  0
    0.8076    2.1228    2.0033 C   0  0  0  0  0  0
    1.8681    2.9043    2.3755 N   0  0  0  0  0  0
    0.5976    2.8980   -0.4865 C   0  0  0  0  0  0
    2.9859    3.2911    1.4964 C   0  0  0  0  0  0
    1.8907    3.6613   -0.8216 C   0  0  0  0  0  0
    2.6185    4.2855    0.3796 C   0  0  0  0  0  0
   -0.0749    1.7604    2.7899 O   0  0  0  0  0  0
   -0.3238    0.7798    0.2557 N   0  0  0  0  0  0
    1.9700    3.3199    3.7920 C   0  0  0  0  0  0
    2.7829    2.3084    4.6430 C   0  0  0  0  0  0
    2.9158    2.5642    5.9652 N   0  0  0  0  0  0
    3.2879    1.3111    4.1181 O   0  0  0  0  0  0
    3.6677    1.6863    6.8710 C   0  0  0  0  0  0
    3.8067    2.5385    8.1312 C   0  0  0  0  0  0
    2.5619    3.4066    8.1243 C   0  0  0  0  0  0
    2.3456    3.7334    6.6473 C   0  0  0  0  0  0
   -0.1837   -0.4874    0.1084 C   0  0  0  0  0  0
    1.1626   -1.1984    0.4024 C   0  0  2  0  0  0
    1.8891   -1.5634   -0.9092 C   0  0  0  0  0  0
    0.9837   -2.3768    1.2763 C   0  0  0  0  0  0
    0.8437   -3.2994    1.9617 N   0  0  0  0  0  0
    2.0466   -2.7337   -1.2670 O   0  0  0  0  0  0
    2.3312   -0.4737   -1.5761 O   0  0  0  0  0  0
    3.0247   -0.6015   -2.8089 C   0  0  0  0  0  0
    3.4068    0.7971   -3.3137 C   0  0  0  0  0  0
    4.1589    0.7602   -4.6549 C   0  0  0  0  0  0
    4.5456    2.1606   -5.1582 C   0  0  0  0  0  0
    5.2284    2.0808   -6.3911 O   0  0  0  0  0  0
   -0.8947   -2.3561   -0.3068 H   0  0  0  0  0  0
   -2.7767   -3.3586   -0.7179 H   0  0  0  0  0  0
   -5.1743   -3.3006   -1.3038 H   0  0  0  0  0  0
   -5.3640    2.1691   -1.2491 H   0  0  0  0  0  0
   -8.1360    2.0371   -1.9162 H   0  0  0  0  0  0
   -8.8156    0.5839   -1.2065 H   0  0  0  0  0  0
   -8.4042    0.6186   -2.9134 H   0  0  0  0  0  0
   -2.6320    0.9545   -0.6132 H   0  0  0  0  0  0
    1.7389    1.2588    0.2486 H   0  0  0  0  0  0
    0.1974    2.5372   -1.4368 H   0  0  0  0  0  0
   -0.1540    3.5927   -0.1063 H   0  0  0  0  0  0
    3.8349    3.6322    2.0902 H   0  0  0  0  0  0
    3.3689    2.3902    1.0165 H   0  0  0  0  0  0
    2.5750    2.9854   -1.3360 H   0  0  0  0  0  0
    1.6612    4.4476   -1.5420 H   0  0  0  0  0  0
    2.0400    5.1135    0.7920 H   0  0  0  0  0  0
    3.5423    4.7272    0.0041 H   0  0  0  0  0  0
    2.4668    4.2899    3.8334 H   0  0  0  0  0  0
    0.9824    3.4815    4.2275 H   0  0  0  0  0  0
    3.0796    0.7941    7.0914 H   0  0  0  0  0  0
    4.6501    1.4202    6.4779 H   0  0  0  0  0  0
    3.9128    1.9356    9.0335 H   0  0  0  0  0  0
    4.6961    3.1670    8.0571 H   0  0  0  0  0  0
    1.7131    2.8355    8.5048 H   0  0  0  0  0  0
    2.6509    4.3009    8.7418 H   0  0  0  0  0  0
    1.2824    3.8640    6.4418 H   0  0  0  0  0  0
    2.9085    4.6293    6.3817 H   0  0  0  0  0  0
    3.9208   -1.2087   -2.6698 H   0  0  0  0  0  0
    2.3908   -1.1063   -3.5400 H   0  0  0  0  0  0
    2.5044    1.4018   -3.4199 H   0  0  0  0  0  0
    4.0261    1.2931   -2.5643 H   0  0  0  0  0  0
    5.0582    0.1514   -4.5459 H   0  0  0  0  0  0
    3.5363    0.2648   -5.4022 H   0  0  0  0  0  0
    3.6561    2.7820   -5.2673 H   0  0  0  0  0  0
    5.1642    2.6737   -4.4208 H   0  0  0  0  0  0
    6.0870    1.6780   -6.2404 H   0  0  0  0  0  0
    1.8313   -0.5795    0.9964 H   0  0  0  0  0  0
  1  2  1  0  0  0
  1 29  1  0  0  0
  1 41  1  0  0  0
  2 11  1  0  0  0
  2  3  2  0  0  0
  3  4  1  0  0  0
  3 42  1  0  0  0
  4  6  2  0  0  0
  4 43  1  0  0  0
  5  9  1  0  0  0
  5 11  2  0  0  0
  5  6  1  0  0  0
  6  7  1  0  0  0
  7  8  1  0  0  0
  8  9  2  0  0  0
  8 10  1  0  0  0
  9 44  1  0  0  0
 10 45  1  0  0  0
 10 46  1  0  0  0
 10 47  1  0  0  0
 11 48  1  0  0  0
 12 20  1  0  0  0
 12 13  1  0  0  0
 12 15  1  0  0  0
 12 49  1  0  0  0
 13 14  1  0  0  0
 13 19  2  0  0  0
 14 21  1  0  0  0
 14 16  1  0  0  0
 15 17  1  0  0  0
 15 50  1  0  0  0
 15 51  1  0  0  0
 16 18  1  0  0  0
 16 52  1  0  0  0
 16 53  1  0  0  0
 17 18  1  0  0  0
 17 54  1  0  0  0
 17 55  1  0  0  0
 18 56  1  0  0  0
 18 57  1  0  0  0
 20 29  2  0  0  0
 21 22  1  0  0  0
 21 58  1  0  0  0
 21 59  1  0  0  0
 22 23  1  0  0  0
 22 24  2  0  0  0
 23 25  1  0  0  0
 23 28  1  0  0  0
 25 26  1  0  0  0
 25 60  1  0  0  0
 25 61  1  0  0  0
 26 27  1  0  0  0
 26 62  1  0  0  0
 26 63  1  0  0  0
 27 28  1  0  0  0
 27 64  1  0  0  0
 27 65  1  0  0  0
 28 66  1  0  0  0
 28 67  1  0  0  0
 29 30  1  0  0  0
 30 31  1  0  0  0
 30 32  1  0  0  0
 30 77  1  0  0  0
 31 34  2  0  0  0
 31 35  1  0  0  0
 32 33  3  0  0  0
 35 36  1  0  0  0
 36 37  1  0  0  0
 36 68  1  0  0  0
 36 69  1  0  0  0
 37 38  1  0  0  0
 37 70  1  0  0  0
 37 71  1  0  0  0
 38 39  1  0  0  0
 38 72  1  0  0  0
 38 73  1  0  0  0
 39 40  1  0  0  0
 39 74  1  0  0  0
 39 75  1  0  0  0
 40 76  1  0  0  0
M  END
> <chembl_id>
CHEMBL198629

> <chembl_pref_name>
None

> <i_m_ct_stereo_status>
1

> <s_m_source_file>
sdf/inactives_sanitized.sdf

> <i_m_source_file_index>
18

> <i_lp_mmshare_version>
49012

> <i_f3d_flags>
0

> <s_epik_input>
W2NIXTFjKFtDSDNdKW9jKGMxMilbY0hdW2NIXWMoW2NIXTIpW05IXVxDKFxDKEMjTik9QygvW09IXSlPW0NIMl1bQ0gyXVtDSDJdW0NIMl1bT0hdKT1OXFtDQEBIXTNDKD1PKU4oW0NIMl1bQ0gyXVtDSDJdW0NIMl0zKVtDSDJdQyg9TylONFtDSDJdW0NIMl1bQ0gyXVtDSDJdNA==

> <s_epik_cmdline>
J2VwaWtfcHl0aG9uJywgJy1waHQnLCAnMC41JywgJy1waCcsICc3LjUnLCAnLW50JywgJy1tYScsICcyMDAnLCAnLWltYWUnLCAnPGluZmlsZS5tYWU+JywgJy1vbWFlJywgJzxvdXRmaWxlLm1hZT4n

> <r_lp_tautomer_probability>
1

> <r_epik_Ionization_Penalty>
  0.1067

> <r_epik_Ionization_Penalty_Charging>
  0.0000

> <r_epik_Ionization_Penalty_Neutral>
  0.1067

> <r_epik_State_Penalty>
 -0.0000

> <r_epik_Charging_Adjusted_Penalty>
0

> <i_epik_Tot_Q>
0

> <i_epik_Tot_abs_Q>
0

> <s_epik_Chemistry_Notes>
This compound has an ester and may undergo hydrolysis at high or low pH. This compound has an imine and may undergo hydrolysis.

> <s_lp_Force_Field>
OPLS3e

> <r_lp_Energy>
40.834296

> <b_lp_Chiralities_Consistent>
1

> <s_lp_Variant>
sdf/inactives_sanitized.sdf:18-1

$$$$
sdf/inactives_sanitized.sdf:19
                    3D
 Schrodinger Suite 2020-1.
 71 74  0  0  1  0            999 V2000
   -1.3092    1.8150    0.9121 C   0  0  0  0  0  0
   -0.4687    1.2077    0.0496 N   0  0  0  0  0  0
   -0.1613   -0.2292   -0.0053 C   0  0  2  0  0  0
    1.3559   -0.2997    0.1710 C   0  0  0  0  0  0
    1.9394   -0.0178    1.4912 C   0  0  0  0  0  0
    1.2184    0.0284    2.5957 N   0  0  0  0  0  0
    2.1448    0.3126    3.5949 O   0  0  0  0  0  0
    3.3275    0.4151    2.9459 C   0  0  0  0  0  0
    3.2327    0.2048    1.6597 N   0  0  0  0  0  0
    4.5650    0.6992    3.7778 C   0  0  0  0  0  0
    5.7756    1.1609    2.9742 C   0  0  0  0  0  0
    6.8739    0.3148    2.8110 C   0  0  0  0  0  0
    7.9859    0.7465    2.0929 C   0  0  0  0  0  0
    8.0101    2.0337    1.5329 C   0  0  0  0  0  0
    6.9033    2.8681    1.6927 C   0  0  0  0  0  0
    5.7909    2.4382    2.4104 C   0  0  0  0  0  0
    9.0720    2.5531    0.8187 O   0  0  0  0  0  0
   11.7305    3.8734    0.8508 C   0  0  0  0  0  0
   11.0694    5.0904    0.6585 C   0  0  0  0  0  0
   11.3997    6.2065    1.4301 C   0  0  0  0  0  0
   12.4035    6.1073    2.4033 C   0  0  0  0  0  0
   13.0653    4.8929    2.5941 C   0  0  0  0  0  0
   12.7308    3.7804    1.8226 C   0  0  0  0  0  0
   10.5494    7.6888    1.1618 Cl  0  0  0  0  0  0
   12.8436    7.4628    3.3839 Cl  0  0  0  0  0  0
    2.0853   -0.5813   -0.7840 O   0  0  0  0  0  0
   -1.9495    1.1985    1.7662 O   0  0  0  0  0  0
   -0.6627   -0.8312   -1.3454 C   0  0  0  0  0  0
   -2.1963   -0.9324   -1.4321 C   0  0  0  0  0  0
   -2.6749   -1.5972   -2.7308 C   0  0  0  0  0  0
   -4.2045   -1.7020   -2.8068 C   0  0  0  0  0  0
   -4.6368   -2.3557   -4.0540 N   0  3  0  0  0  0
   10.2688    1.7896    0.6823 C   0  0  0  0  0  0
   11.3533    2.6546    0.0193 C   0  0  0  0  0  0
   -1.4500    3.3157    0.7708 C   0  0  0  0  0  0
   -0.5236    4.0805    0.0391 C   0  0  0  0  0  0
   -0.6701    5.4633   -0.0730 C   0  0  0  0  0  0
   -1.7415    6.1054    0.5448 C   0  0  0  0  0  0
   -2.6668    5.3634    1.2777 C   0  0  0  0  0  0
   -2.5207    3.9803    1.3904 C   0  0  0  0  0  0
   -1.8793    7.4464    0.4337 F   0  0  0  0  0  0
   -3.7068    5.9821    1.8819 F   0  0  0  0  0  0
   -0.0274    1.7686   -0.6646 H   0  0  0  0  0  0
   -0.6350   -0.7764    0.8132 H   0  0  0  0  0  0
    4.3384    1.4794    4.5058 H   0  0  0  0  0  0
    4.8209   -0.1799    4.3706 H   0  0  0  0  0  0
    6.8708   -0.6767    3.2403 H   0  0  0  0  0  0
    8.8187    0.0691    1.9829 H   0  0  0  0  0  0
    6.9100    3.8594    1.2633 H   0  0  0  0  0  0
    4.9440    3.0983    2.5299 H   0  0  0  0  0  0
   10.2911    5.1683   -0.0874 H   0  0  0  0  0  0
   13.8383    4.8092    3.3441 H   0  0  0  0  0  0
   13.2475    2.8456    1.9853 H   0  0  0  0  0  0
   -0.2884   -0.2502   -2.1908 H   0  0  0  0  0  0
   -0.2524   -1.8356   -1.4657 H   0  0  0  0  0  0
   -2.5697   -1.4966   -0.5764 H   0  0  0  0  0  0
   -2.6330    0.0640   -1.3548 H   0  0  0  0  0  0
   -2.3037   -1.0295   -3.5852 H   0  0  0  0  0  0
   -2.2357   -2.5928   -2.8109 H   0  0  0  0  0  0
   -4.5871   -2.2750   -1.9613 H   0  0  0  0  0  0
   -4.6557   -0.7104   -2.7553 H   0  0  0  0  0  0
   -5.6453   -2.4110   -4.0743 H   0  0  0  0  0  0
   -4.2495   -3.2876   -4.0994 H   0  0  0  0  0  0
   10.6289    1.4403    1.6521 H   0  0  0  0  0  0
   10.0721    0.9104    0.0665 H   0  0  0  0  0  0
   11.0204    2.9787   -0.9682 H   0  0  0  0  0  0
   12.2471    2.0555   -0.1610 H   0  0  0  0  0  0
    0.3240    3.6190   -0.4470 H   0  0  0  0  0  0
    0.0500    6.0372   -0.6377 H   0  0  0  0  0  0
   -3.2529    3.4309    1.9657 H   0  0  0  0  0  0
   -4.3151   -1.8197   -4.8474 H   0  0  0  0  0  0
  1  2  1  0  0  0
  1 27  2  0  0  0
  1 35  1  0  0  0
  2  3  1  0  0  0
  2 43  1  0  0  0
  3  4  1  0  0  0
  3 28  1  0  0  0
  3 44  1  0  0  0
  4  5  1  0  0  0
  4 26  2  0  0  0
  5  6  2  0  0  0
  5  9  1  0  0  0
  6  7  1  0  0  0
  7  8  1  0  0  0
  8  9  2  0  0  0
  8 10  1  0  0  0
 10 11  1  0  0  0
 10 45  1  0  0  0
 10 46  1  0  0  0
 11 12  2  0  0  0
 11 16  1  0  0  0
 12 13  1  0  0  0
 12 47  1  0  0  0
 13 14  2  0  0  0
 13 48  1  0  0  0
 14 15  1  0  0  0
 14 17  1  0  0  0
 15 16  2  0  0  0
 15 49  1  0  0  0
 16 50  1  0  0  0
 17 33  1  0  0  0
 18 19  2  0  0  0
 18 23  1  0  0  0
 18 34  1  0  0  0
 19 20  1  0  0  0
 19 51  1  0  0  0
 20 21  2  0  0  0
 20 24  1  0  0  0
 21 22  1  0  0  0
 21 25  1  0  0  0
 22 23  2  0  0  0
 22 52  1  0  0  0
 23 53  1  0  0  0
 28 29  1  0  0  0
 28 54  1  0  0  0
 28 55  1  0  0  0
 29 30  1  0  0  0
 29 56  1  0  0  0
 29 57  1  0  0  0
 30 31  1  0  0  0
 30 58  1  0  0  0
 30 59  1  0  0  0
 31 32  1  0  0  0
 31 60  1  0  0  0
 31 61  1  0  0  0
 32 62  1  0  0  0
 32 63  1  0  0  0
 32 71  1  0  0  0
 33 34  1  0  0  0
 33 64  1  0  0  0
 33 65  1  0  0  0
 34 66  1  0  0  0
 34 67  1  0  0  0
 35 36  2  0  0  0
 35 40  1  0  0  0
 36 37  1  0  0  0
 36 68  1  0  0  0
 37 38  2  0  0  0
 37 69  1  0  0  0
 38 39  1  0  0  0
 38 41  1  0  0  0
 39 40  2  0  0  0
 39 42  1  0  0  0
 40 70  1  0  0  0
M  CHG  1  32   1
M  END
> <chembl_id>
CHEMBL536972

> <chembl_pref_name>
None

> <i_m_ct_stereo_status>
1

> <s_m_source_file>
sdf/inactives_sanitized.sdf

> <i_m_source_file_index>
19

> <i_lp_mmshare_version>
49012

> <i_f3d_flags>
0

> <s_epik_input>
W2NIXTFjKEYpYyhGKVtjSF1bY0hdYzFDKD1PKVtOSF1bQ0BASF0oW0NIMl1bQ0gyXVtDSDJdW0NIMl1bTkgyXSlDKD1PKWMybm9jKG4yKVtDSDJdYzNbY0hdW2NIXWMoW2NIXVtjSF0zKU9bQ0gyXVtDSDJdYzRbY0hdYyhDbCljKENsKVtjSF1bY0hdNA==

> <s_epik_cmdline>
J2VwaWtfcHl0aG9uJywgJy1waHQnLCAnMC41JywgJy1waCcsICc3LjUnLCAnLW50JywgJy1tYScsICcyMDAnLCAnLWltYWUnLCAnPGluZmlsZS5tYWU+JywgJy1vbWFlJywgJzxvdXRmaWxlLm1hZT4n

> <r_lp_tautomer_probability>
1

> <r_epik_Ionization_Penalty>
  0.0017

> <r_epik_Ionization_Penalty_Charging>
  0.0017

> <r_epik_Ionization_Penalty_Neutral>
  0.0000

> <r_epik_State_Penalty>
 -0.0000

> <r_epik_Charging_Adjusted_Penalty>
0.00170441336602369

> <i_epik_Tot_Q>
1

> <i_epik_Tot_abs_Q>
1

> <s_lp_Force_Field>
OPLS3e

> <r_lp_Energy>
55.518204

> <b_lp_Chiralities_Consistent>
1

> <s_lp_Variant>
sdf/inactives_sanitized.sdf:19-1

$$$$
sdf/inactives_sanitized.sdf:20
                    3D
 Schrodinger Suite 2020-1.
 81 85  0  0  1  0            999 V2000
   -0.8266    6.0785   -0.6967 C   0  0  0  0  0  0
   -0.2541    4.8067   -0.6706 C   0  0  0  0  0  0
   -0.8823    3.7297   -0.0361 C   0  0  0  0  0  0
   -2.1037    3.9057    0.6339 C   0  0  0  0  0  0
   -2.0530    6.2329   -0.0434 C   0  0  0  0  0  0
   -2.7051    5.1743    0.6249 C   0  0  0  0  0  0
   -3.8975    5.7556    1.1550 C   0  0  0  0  0  0
   -3.8879    7.0922    0.7785 C   0  0  0  0  0  0
   -2.7718    7.3893    0.0512 O   0  0  0  0  0  0
   -4.8396    8.2381    1.0144 C   0  0  0  0  0  0
   -0.6921    1.2283   -0.0265 C   0  0  0  0  0  0
   -2.0131    1.0202   -0.1094 N   0  0  0  0  0  0
    0.1187    0.1580    0.0531 N   0  3  0  0  0  0
   -2.7270   -0.2723   -0.1319 C   0  0  2  0  0  0
   -4.0542   -0.0355   -0.9140 C   0  0  0  0  0  0
   -4.7650   -1.1728   -1.1871 N   0  0  0  0  0  0
   -2.8877   -0.8347    1.3009 C   0  0  0  0  0  0
   -4.3058   -2.5443   -0.9007 C   0  0  0  0  0  0
   -3.0556   -2.3614    1.3626 C   0  0  0  0  0  0
   -4.2640   -2.9200    0.5926 C   0  0  0  0  0  0
   -4.4313    1.0954   -1.2445 O   0  0  0  0  0  0
   -6.0424   -1.0446   -1.9240 C   0  0  0  0  0  0
   -5.8474   -1.1415   -3.4603 C   0  0  0  0  0  0
   -6.9397   -0.9838   -4.2435 N   0  0  0  0  0  0
   -4.7288   -1.3566   -3.9369 O   0  0  0  0  0  0
   -6.8813   -1.0542   -5.7092 C   0  0  0  0  0  0
   -8.2549   -0.5342   -6.1299 C   0  0  0  0  0  0
   -9.1629   -0.9290   -4.9798 C   0  0  0  0  0  0
   -8.2948   -0.7280   -3.7387 C   0  0  0  0  0  0
    1.5912    0.1105    0.1456 C   0  0  0  0  0  0
    2.2760    1.1340    0.1431 O   0  0  0  0  0  0
    2.2266   -1.2566    0.2282 C   0  0  0  0  0  0
    3.6153   -1.4088    0.1065 C   0  0  0  0  0  0
    4.2441   -2.6093    0.1702 N   0  0  0  0  0  0
    3.4911   -3.7237    0.3728 C   0  0  0  0  0  0
    2.0965   -3.6636    0.4973 C   0  0  0  0  0  0
    1.4663   -2.4203    0.4279 C   0  0  0  0  0  0
    4.2309   -5.0391    0.4075 C   0  0  0  0  0  0
    5.0163   -5.2949   -0.5088 O   0  0  0  0  0  0
    3.9761   -5.9113    1.4200 N   0  0  0  0  0  0
    3.2978   -5.5722    2.6745 C   0  0  0  0  0  0
    4.4076   -7.3100    1.3596 C   0  0  0  0  0  0
   -0.1956    2.4786   -0.0491 N   0  0  0  0  0  0
   -0.3422    6.9051   -1.1953 H   0  0  0  0  0  0
    0.6964    4.6585   -1.1642 H   0  0  0  0  0  0
   -2.5765    3.0991    1.1722 H   0  0  0  0  0  0
   -4.6702    5.2749    1.7362 H   0  0  0  0  0  0
   -5.7164    7.9270    1.5828 H   0  0  0  0  0  0
   -5.1980    8.6611    0.0758 H   0  0  0  0  0  0
   -4.3639    9.0448    1.5723 H   0  0  0  0  0  0
   -2.5914    1.8412    0.0028 H   0  0  0  0  0  0
   -2.0862   -0.9170   -0.7339 H   0  0  0  0  0  0
   -2.0087   -0.5818    1.8966 H   0  0  0  0  0  0
   -3.7250   -0.3491    1.8063 H   0  0  0  0  0  0
   -4.8690   -3.2658   -1.4943 H   0  0  0  0  0  0
   -3.2916   -2.6477   -1.2878 H   0  0  0  0  0  0
   -2.1467   -2.8316    0.9839 H   0  0  0  0  0  0
   -3.1300   -2.6685    2.4067 H   0  0  0  0  0  0
   -5.1978   -2.6298    1.0768 H   0  0  0  0  0  0
   -4.2196   -4.0074    0.6657 H   0  0  0  0  0  0
   -6.7042   -1.8512   -1.6062 H   0  0  0  0  0  0
   -6.5627   -0.1218   -1.6613 H   0  0  0  0  0  0
   -6.0903   -0.4297   -6.1274 H   0  0  0  0  0  0
   -6.7664   -2.0922   -6.0248 H   0  0  0  0  0  0
   -8.2271    0.5531   -6.2218 H   0  0  0  0  0  0
   -8.5745   -0.9309   -7.0941 H   0  0  0  0  0  0
  -10.0892   -0.3551   -4.9387 H   0  0  0  0  0  0
   -9.4392   -1.9810   -5.0723 H   0  0  0  0  0  0
   -8.3729    0.3058   -3.3990 H   0  0  0  0  0  0
   -8.5914   -1.4228   -2.9519 H   0  0  0  0  0  0
    4.2633   -0.5579   -0.0514 H   0  0  0  0  0  0
    1.5070   -4.5585    0.6389 H   0  0  0  0  0  0
    0.3915   -2.3821    0.5301 H   0  0  0  0  0  0
    3.1029   -4.5060    2.7885 H   0  0  0  0  0  0
    3.9134   -5.8728    3.5232 H   0  0  0  0  0  0
    2.3477   -6.1029    2.7454 H   0  0  0  0  0  0
    4.8734   -7.5754    0.4094 H   0  0  0  0  0  0
    3.5533   -7.9730    1.5009 H   0  0  0  0  0  0
    5.1276   -7.5164    2.1523 H   0  0  0  0  0  0
    0.8010    2.5195   -0.2104 H   0  0  0  0  0  0
   -0.3564   -0.7323    0.0520 H   0  0  0  0  0  0
  1  5  2  0  0  0
  1  2  1  0  0  0
  1 44  1  0  0  0
  2  3  2  0  0  0
  2 45  1  0  0  0
  3  4  1  0  0  0
  3 43  1  0  0  0
  4  6  2  0  0  0
  4 46  1  0  0  0
  5  6  1  0  0  0
  5  9  1  0  0  0
  6  7  1  0  0  0
  7  8  2  0  0  0
  7 47  1  0  0  0
  8  9  1  0  0  0
  8 10  1  0  0  0
 10 48  1  0  0  0
 10 49  1  0  0  0
 10 50  1  0  0  0
 11 12  1  0  0  0
 11 13  2  0  0  0
 11 43  1  0  0  0
 12 14  1  0  0  0
 12 51  1  0  0  0
 13 30  1  0  0  0
 13 81  1  0  0  0
 14 15  1  0  0  0
 14 17  1  0  0  0
 14 52  1  0  0  0
 15 16  1  0  0  0
 15 21  2  0  0  0
 16 18  1  0  0  0
 16 22  1  0  0  0
 17 19  1  0  0  0
 17 53  1  0  0  0
 17 54  1  0  0  0
 18 20  1  0  0  0
 18 55  1  0  0  0
 18 56  1  0  0  0
 19 20  1  0  0  0
 19 57  1  0  0  0
 19 58  1  0  0  0
 20 59  1  0  0  0
 20 60  1  0  0  0
 22 23  1  0  0  0
 22 61  1  0  0  0
 22 62  1  0  0  0
 23 24  1  0  0  0
 23 25  2  0  0  0
 24 26  1  0  0  0
 24 29  1  0  0  0
 26 27  1  0  0  0
 26 63  1  0  0  0
 26 64  1  0  0  0
 27 28  1  0  0  0
 27 65  1  0  0  0
 27 66  1  0  0  0
 28 29  1  0  0  0
 28 67  1  0  0  0
 28 68  1  0  0  0
 29 69  1  0  0  0
 29 70  1  0  0  0
 30 31  2  0  0  0
 30 32  1  0  0  0
 32 33  2  0  0  0
 32 37  1  0  0  0
 33 34  1  0  0  0
 33 71  1  0  0  0
 34 35  2  0  0  0
 35 36  1  0  0  0
 35 38  1  0  0  0
 36 37  2  0  0  0
 36 72  1  0  0  0
 37 73  1  0  0  0
 38 39  2  0  0  0
 38 40  1  0  0  0
 40 41  1  0  0  0
 40 42  1  0  0  0
 41 74  1  0  0  0
 41 75  1  0  0  0
 41 76  1  0  0  0
 42 77  1  0  0  0
 42 78  1  0  0  0
 42 79  1  0  0  0
 43 80  1  0  0  0
M  CHG  1  13   1
M  END
> <chembl_id>
CHEMBL570867

> <chembl_pref_name>
None

> <i_m_ct_stereo_status>
1

> <s_m_source_file>
sdf/inactives_sanitized.sdf

> <i_m_source_file_index>
20

> <i_lp_mmshare_version>
49012

> <i_f3d_flags>
0

> <s_epik_input>
W0NIM11OKFtDSDNdKUMoPU8pYyhbY0hdW2NIXTEpbltjSF1jMUMoPU8pXE49QyhbTkhdYyhbY0hdW2NIXTIpW2NIXWMoYzIzKVtjSF1jKG8zKVtDSDNdKVxbTkhdW0NAQEhdNEMoPU8pTihbQ0gyXVtDSDJdW0NIMl1bQ0gyXTQpW0NIMl1DKD1PKU41W0NIMl1bQ0gyXVtDSDJdW0NIMl01

> <s_epik_cmdline>
J2VwaWtfcHl0aG9uJywgJy1waHQnLCAnMC41JywgJy1waCcsICc3LjUnLCAnLW50JywgJy1tYScsICcyMDAnLCAnLWltYWUnLCAnPGluZmlsZS5tYWU+JywgJy1vbWFlJywgJzxvdXRmaWxlLm1hZT4n

> <r_lp_tautomer_probability>
1

> <r_epik_Ionization_Penalty>
  0.0067

> <r_epik_Ionization_Penalty_Charging>
  0.0067

> <r_epik_Ionization_Penalty_Neutral>
  0.0000

> <r_epik_State_Penalty>
 -0.0000

> <r_epik_Charging_Adjusted_Penalty>
0.00674319276742549

> <i_epik_Tot_Q>
1

> <i_epik_Tot_abs_Q>
1

> <s_epik_Chemistry_Notes>
This compound has an imine and may undergo hydrolysis.

> <s_lp_Force_Field>
OPLS3e

> <r_lp_Energy>
65.782045

> <b_lp_Chiralities_Consistent>
1

> <s_lp_Variant>
sdf/inactives_sanitized.sdf:20-1

$$$$
sdf/inactives_sanitized.sdf:21
                    3D
 Schrodinger Suite 2020-1.
 66 71  0  0  1  0            999 V2000
    8.5640    0.6014    0.6081 N   0  3  0  0  0  0
   -1.7598    1.0189   -0.4154 N   0  0  0  0  0  0
   -0.4775    1.1975   -0.0473 N   0  0  0  0  0  0
    0.2228    0.0005   -0.0085 C   0  0  0  0  0  0
   -0.7290   -0.9535   -0.3529 C   0  0  0  0  0  0
   -1.9257   -0.2725   -0.5975 C   0  0  0  0  0  0
   -3.2737   -0.8237   -1.0241 C   0  0  0  0  0  0
   -3.3171   -2.1507   -0.9025 F   0  0  0  0  0  0
   -4.2633   -0.3231   -0.2833 F   0  0  0  0  0  0
   -3.5282   -0.5277   -2.2985 F   0  0  0  0  0  0
   -0.0243    2.5175    0.1837 C   0  0  0  0  0  0
    1.5896   -0.1933    0.4189 C   0  0  0  0  0  0
    2.1356    0.5808    1.2082 O   0  0  0  0  0  0
    2.1809   -1.2731   -0.1353 N   0  0  0  0  0  0
    3.5253   -1.6339    0.0314 C   0  0  0  0  0  0
    4.2762   -1.8790   -1.1201 C   0  0  0  0  0  0
    5.6166   -2.2483   -1.0175 C   0  0  0  0  0  0
    6.2282   -2.3917    0.2337 C   0  0  0  0  0  0
    5.4523   -2.2034    1.3836 C   0  0  0  0  0  0
    4.1111   -1.8302    1.2932 C   0  0  0  0  0  0
    3.3940   -1.6816    2.4321 F   0  0  0  0  0  0
   -0.7266    3.3488    1.0701 C   0  0  0  0  0  0
   -0.3098    4.6555    1.3279 C   0  0  0  0  0  0
    1.1195    2.9810   -0.4855 C   0  0  0  0  0  0
    1.5594    4.2908   -0.2361 C   0  0  0  0  0  0
    0.8381    5.0938    0.6606 C   0  0  0  0  0  0
    1.4281    6.3197    0.7593 O   0  0  0  0  0  0
    2.5525    6.3297   -0.0788 N   0  0  0  0  0  0
    2.6201    5.1490   -0.6521 C   0  0  0  0  0  0
    3.5997    4.8052   -1.5379 N   0  0  0  0  0  0
    7.6651   -2.7685    0.3271 C   0  0  0  0  0  0
    8.0694   -3.9847   -0.2409 C   0  0  0  0  0  0
    9.3977   -4.4004   -0.1882 C   0  0  0  0  0  0
   10.3501   -3.5997    0.4333 C   0  0  0  0  0  0
    9.9721   -2.3828    0.9943 C   0  0  0  0  0  0
    8.6410   -1.9509    0.9425 C   0  0  0  0  0  0
    8.3198   -0.5889    1.5595 C   0  0  0  0  0  0
    7.5704    0.6959   -0.5608 C   0  0  0  0  0  0
    7.7335    2.1302   -1.0534 C   0  0  0  0  0  0
    8.0747    2.9615    0.1842 C   0  0  0  0  0  0
    8.4543    1.9758    1.2965 C   0  0  0  0  0  0
   -0.5812   -2.0224   -0.4119 H   0  0  0  0  0  0
    1.6712   -1.7645   -0.8552 H   0  0  0  0  0  0
    3.8323   -1.7663   -2.0992 H   0  0  0  0  0  0
    6.1870   -2.4120   -1.9206 H   0  0  0  0  0  0
    5.8922   -2.3489    2.3598 H   0  0  0  0  0  0
   -1.6071    2.9775    1.5754 H   0  0  0  0  0  0
   -0.8474    5.2945    2.0127 H   0  0  0  0  0  0
    1.6552    2.3446   -1.1752 H   0  0  0  0  0  0
    3.6233    3.8957   -1.9750 H   0  0  0  0  0  0
    4.3209    5.4598   -1.8042 H   0  0  0  0  0  0
    7.3435   -4.6238   -0.7235 H   0  0  0  0  0  0
    9.6872   -5.3440   -0.6270 H   0  0  0  0  0  0
   11.3808   -3.9200    0.4775 H   0  0  0  0  0  0
   10.7256   -1.7681    1.4657 H   0  0  0  0  0  0
    7.2956   -0.4820    1.9107 H   0  0  0  0  0  0
    8.9725   -0.3893    2.4116 H   0  0  0  0  0  0
    7.8142   -0.0813   -1.2861 H   0  0  0  0  0  0
    6.5804    0.5031   -0.1430 H   0  0  0  0  0  0
    8.5414    2.1815   -1.7848 H   0  0  0  0  0  0
    6.8278    2.4894   -1.5435 H   0  0  0  0  0  0
    8.8909    3.6549   -0.0227 H   0  0  0  0  0  0
    7.2175    3.5605    0.4952 H   0  0  0  0  0  0
    9.4032    2.1740    1.7963 H   0  0  0  0  0  0
    7.6586    1.8895    2.0393 H   0  0  0  0  0  0
    9.4930    0.5013    0.2235 H   0  0  0  0  0  0
  1 37  1  0  0  0
  1 38  1  0  0  0
  1 41  1  0  0  0
  1 66  1  0  0  0
  2  6  2  0  0  0
  2  3  1  0  0  0
  3 11  1  0  0  0
  3  4  1  0  0  0
  4 12  1  0  0  0
  4  5  2  0  0  0
  5  6  1  0  0  0
  5 42  1  0  0  0
  6  7  1  0  0  0
  7  8  1  0  0  0
  7  9  1  0  0  0
  7 10  1  0  0  0
 11 22  2  0  0  0
 11 24  1  0  0  0
 12 13  2  0  0  0
 12 14  1  0  0  0
 14 15  1  0  0  0
 14 43  1  0  0  0
 15 16  2  0  0  0
 15 20  1  0  0  0
 16 17  1  0  0  0
 16 44  1  0  0  0
 17 18  2  0  0  0
 17 45  1  0  0  0
 18 31  1  0  0  0
 18 19  1  0  0  0
 19 20  2  0  0  0
 19 46  1  0  0  0
 20 21  1  0  0  0
 22 23  1  0  0  0
 22 47  1  0  0  0
 23 26  2  0  0  0
 23 48  1  0  0  0
 24 25  2  0  0  0
 24 49  1  0  0  0
 25 26  1  0  0  0
 25 29  1  0  0  0
 26 27  1  0  0  0
 27 28  1  0  0  0
 28 29  2  0  0  0
 29 30  1  0  0  0
 30 50  1  0  0  0
 30 51  1  0  0  0
 31 32  2  0  0  0
 31 36  1  0  0  0
 32 33  1  0  0  0
 32 52  1  0  0  0
 33 34  2  0  0  0
 33 53  1  0  0  0
 34 35  1  0  0  0
 34 54  1  0  0  0
 35 36  2  0  0  0
 35 55  1  0  0  0
 36 37  1  0  0  0
 37 56  1  0  0  0
 37 57  1  0  0  0
 38 39  1  0  0  0
 38 58  1  0  0  0
 38 59  1  0  0  0
 39 40  1  0  0  0
 39 60  1  0  0  0
 39 61  1  0  0  0
 40 41  1  0  0  0
 40 62  1  0  0  0
 40 63  1  0  0  0
 41 64  1  0  0  0
 41 65  1  0  0  0
M  CHG  1   1   1
M  END
> <chembl_id>
CHEMBL379036

> <chembl_pref_name>
None

> <s_m_source_file>
sdf/inactives_sanitized.sdf

> <i_m_source_file_index>
21

> <i_lp_mmshare_version>
49012

> <i_m_ct_stereo_status>
1

> <i_f3d_flags>
0

> <s_epik_input>
W0NIMl0xW0NIMl1bQ0gyXVtDSDJdTjFbQ0gyXWMyW2NIXVtjSF1bY0hdW2NIXWMyLWMoW2NIXWMzRilbY0hdW2NIXWMzW05IXUMoPU8pYzRbY0hdYyhDKEYpKEYpRilubjQtYyhbY0hdNSlbY0hdW2NIXWMoYzU2KW9uYzZbTkgyXQ==

> <s_epik_cmdline>
J2VwaWtfcHl0aG9uJywgJy1waHQnLCAnMC41JywgJy1waCcsICc3LjUnLCAnLW50JywgJy1tYScsICcyMDAnLCAnLWltYWUnLCAnPGluZmlsZS5tYWU+JywgJy1vbWFlJywgJzxvdXRmaWxlLm1hZT4n

> <r_lp_tautomer_probability>
1

> <r_epik_Ionization_Penalty>
  0.0321

> <r_epik_Ionization_Penalty_Charging>
  0.0321

> <r_epik_Ionization_Penalty_Neutral>
  0.0000

> <r_epik_State_Penalty>
  0.0265

> <r_epik_Charging_Adjusted_Penalty>
0.0585996915875001

> <i_epik_Tot_Q>
1

> <i_epik_Tot_abs_Q>
1

> <s_lp_Force_Field>
OPLS3e

> <r_lp_Energy>
66.644256

> <b_lp_Chiralities_Consistent>
1

> <s_lp_Variant>
sdf/inactives_sanitized.sdf:21-1

$$$$
sdf/inactives_sanitized.sdf:22
                    3D
 Schrodinger Suite 2020-1.
 58 62  0  0  1  0            999 V2000
   -0.0346    0.0377   -0.1671 C   0  0  0  0  0  0
    2.8633    5.3072   -5.8512 N   0  0  0  0  0  0
    4.0992    5.7310   -6.3020 C   0  0  0  0  0  0
   -0.9326    1.1742   -0.1072 C   0  0  0  0  0  0
    1.4899    0.0374    0.0708 C   0  0  0  0  0  0
    2.2005    1.1758   -0.7273 C   0  0  0  0  0  0
    4.0628    6.6595   -7.2199 N   0  0  0  0  0  0
   -0.8559   -1.0397   -0.4697 C   0  0  0  0  0  0
   -2.1586   -0.6405   -0.6043 N   0  0  0  0  0  0
    1.9374    6.0558   -6.5681 C   0  0  0  0  0  0
   -0.7525    2.5442    0.1506 C   0  0  0  0  0  0
   -1.6339    4.8642    0.3312 C   0  0  0  0  0  0
   -1.8370    3.4313    0.1011 C   0  0  0  0  0  0
    1.7694    1.3747   -1.9957 N   0  0  0  0  0  0
   -2.2514    0.7150   -0.3941 C   0  0  0  0  0  0
    2.7283    6.8845   -7.4111 C   0  0  0  0  0  0
    2.6344    4.2934   -4.8933 C   0  0  0  0  0  0
   -2.6118    5.5825    0.8704 N   0  3  0  0  0  0
    3.0826    1.8455   -0.1870 O   0  0  0  0  0  0
   -3.1118    2.9231   -0.1808 C   0  0  0  0  0  0
   -3.3528    1.5727   -0.4283 C   0  0  0  0  0  0
    1.5574    3.4133   -5.0348 C   0  0  0  0  0  0
    3.4586    4.2076   -3.7668 C   0  0  0  0  0  0
    2.1279    2.3654   -2.9294 C   0  0  0  0  0  0
   -0.4753    5.4175   -0.0098 N   0  0  0  0  0  0
    1.3122    2.4510   -4.0599 C   0  0  0  0  0  0
    3.2131    3.2453   -2.7914 C   0  0  0  0  0  0
    1.7239    0.1975    1.5982 C   0  0  0  0  0  0
    2.1279   -1.3087   -0.3665 C   0  0  0  0  0  0
    0.5363    6.1243   -6.5779 C   0  0  0  0  0  0
    2.1103    7.7864   -8.2893 C   0  0  0  0  0  0
   -0.0472    7.0330   -7.4638 C   0  0  0  0  0  0
    0.7172    7.8441   -8.3014 C   0  0  0  0  0  0
    4.9984    5.2843   -5.9030 H   0  0  0  0  0  0
   -0.6141   -2.0839   -0.6051 H   0  0  0  0  0  0
   -2.9048   -1.2841   -0.8268 H   0  0  0  0  0  0
    0.2326    2.9209    0.3804 H   0  0  0  0  0  0
    1.0299    0.7624   -2.3080 H   0  0  0  0  0  0
   -2.4799    6.5702    1.0313 H   0  0  0  0  0  0
   -3.9522    3.6000   -0.2243 H   0  0  0  0  0  0
   -4.3490    1.2162   -0.6469 H   0  0  0  0  0  0
    0.9141    3.4563   -5.9012 H   0  0  0  0  0  0
    4.2868    4.8888   -3.6340 H   0  0  0  0  0  0
   -0.3245    6.4045    0.1386 H   0  0  0  0  0  0
    0.2484    4.8490   -0.4260 H   0  0  0  0  0  0
    0.4751    1.7789   -4.1865 H   0  0  0  0  0  0
    3.8810    3.2125   -1.9463 H   0  0  0  0  0  0
    1.3469    1.1515    1.9710 H   0  0  0  0  0  0
    2.7821    0.1423    1.8597 H   0  0  0  0  0  0
    1.2186   -0.5877    2.1628 H   0  0  0  0  0  0
    1.9538   -1.5191   -1.4233 H   0  0  0  0  0  0
    1.7211   -2.1487    0.1987 H   0  0  0  0  0  0
    3.2080   -1.3194   -0.2077 H   0  0  0  0  0  0
   -0.0784    5.5162   -5.9317 H   0  0  0  0  0  0
    2.6931    8.4223   -8.9394 H   0  0  0  0  0  0
   -1.1241    7.1120   -7.4992 H   0  0  0  0  0  0
    0.2204    8.5326   -8.9694 H   0  0  0  0  0  0
   -3.4811    5.1358    1.1231 H   0  0  0  0  0  0
  1  4  1  0  0  0
  1  5  1  0  0  0
  1  8  2  0  0  0
  2 17  1  0  0  0
  2  3  1  0  0  0
  2 10  1  0  0  0
  3  7  2  0  0  0
  3 34  1  0  0  0
  4 11  2  0  0  0
  4 15  1  0  0  0
  5  6  1  0  0  0
  5 28  1  0  0  0
  5 29  1  0  0  0
  6 14  1  0  0  0
  6 19  2  0  0  0
  7 16  1  0  0  0
  8  9  1  0  0  0
  8 35  1  0  0  0
  9 15  1  0  0  0
  9 36  1  0  0  0
 10 16  2  0  0  0
 10 30  1  0  0  0
 11 13  1  0  0  0
 11 37  1  0  0  0
 12 13  1  0  0  0
 12 18  2  0  0  0
 12 25  1  0  0  0
 13 20  2  0  0  0
 14 24  1  0  0  0
 14 38  1  0  0  0
 15 21  2  0  0  0
 16 31  1  0  0  0
 17 23  2  0  0  0
 17 22  1  0  0  0
 18 39  1  0  0  0
 18 58  1  0  0  0
 20 21  1  0  0  0
 20 40  1  0  0  0
 21 41  1  0  0  0
 22 26  2  0  0  0
 22 42  1  0  0  0
 23 27  1  0  0  0
 23 43  1  0  0  0
 24 26  1  0  0  0
 24 27  2  0  0  0
 25 44  1  0  0  0
 25 45  1  0  0  0
 26 46  1  0  0  0
 27 47  1  0  0  0
 28 48  1  0  0  0
 28 49  1  0  0  0
 28 50  1  0  0  0
 29 51  1  0  0  0
 29 52  1  0  0  0
 29 53  1  0  0  0
 30 32  2  0  0  0
 30 54  1  0  0  0
 31 33  2  0  0  0
 31 55  1  0  0  0
 32 33  1  0  0  0
 32 56  1  0  0  0
 33 57  1  0  0  0
M  CHG  1  18   1
M  END
> <chembl_id>
CHEMBL364580

> <chembl_pref_name>
None

> <s_m_source_file>
sdf/inactives_sanitized.sdf

> <i_m_source_file_index>
22

> <i_lp_mmshare_version>
49012

> <i_m_ct_stereo_status>
1

> <i_f3d_flags>
0

> <s_epik_input>
W0hdXE49QyhbTkgyXSlcYyhbY0hdMSlbY0hdW2NIXWMoYzEyKVtuSF1bY0hdYzJDKFtDSDNdKShbQ0gzXSlDKD1PKVtOSF1jKFtjSF1bY0hdMylbY0hdW2NIXWMzLW40W2NIXW5jKGM0NSlbY0hdW2NIXVtjSF1bY0hdNQ==

> <s_epik_cmdline>
J2VwaWtfcHl0aG9uJywgJy1waHQnLCAnMC41JywgJy1waCcsICc3LjUnLCAnLW50JywgJy1tYScsICcyMDAnLCAnLWltYWUnLCAnPGluZmlsZS5tYWU+JywgJy1vbWFlJywgJzxvdXRmaWxlLm1hZT4n

> <r_epik_Ionization_Penalty>
  0.0112

> <r_epik_Ionization_Penalty_Charging>
  0.0010

> <r_epik_Ionization_Penalty_Neutral>
  0.0102

> <r_epik_State_Penalty>
  0.0078

> <r_epik_Charging_Adjusted_Penalty>
0.00877873498810205

> <i_epik_Tot_Q>
1

> <i_epik_Tot_abs_Q>
1

> <s_epik_Chemistry_Notes>
This compound has an imine and may undergo hydrolysis.

> <s_lp_Force_Field>
OPLS3e

> <r_lp_Energy>
46.301037

> <b_lp_Chiralities_Consistent>
1

> <s_lp_Variant>
sdf/inactives_sanitized.sdf:22-1

$$$$
sdf/inactives_sanitized.sdf:23
                    3D
 Schrodinger Suite 2020-1.
 58 62  0  0  1  0            999 V2000
    3.9507   -1.2738   -7.4168 N   0  0  0  0  0  0
   -0.1107   -0.0689    0.0504 C   0  0  0  0  0  0
    3.8220   -0.4468   -8.5167 C   0  0  0  0  0  0
   -0.9476    1.1035   -0.0204 C   0  0  0  0  0  0
    4.2951   -0.9341   -9.6322 N   0  0  0  0  0  0
   -0.9891   -1.1409    0.0861 C   0  0  0  0  0  0
    1.9788   -0.8267   -1.1414 C   0  0  0  0  0  0
   -2.2853   -0.7022    0.0292 N   0  0  0  0  0  0
    4.5801   -2.4178   -7.8932 C   0  0  0  0  0  0
    1.4138   -0.1000    0.0986 C   0  0  2  0  0  0
   -0.6869    2.4827   -0.0709 C   0  0  0  0  0  0
   -1.4706    4.8457   -0.1737 C   0  0  0  0  0  0
   -1.7421    3.4060   -0.1278 C   0  0  0  0  0  0
    2.1721   -0.0536   -2.2331 N   0  0  0  0  0  0
   -2.3067    0.6723   -0.0324 C   0  0  0  0  0  0
    4.7734   -2.1645   -9.2794 C   0  0  0  0  0  0
    3.4788   -0.9940   -6.1138 C   0  0  0  0  0  0
   -2.3506    5.6911    0.3504 N   0  3  0  0  0  0
    2.2133   -2.0357   -1.0899 O   0  0  0  0  0  0
   -3.0590    2.9263   -0.1393 C   0  0  0  0  0  0
   -3.3746    1.5695   -0.0945 C   0  0  0  0  0  0
    3.5962    0.3011   -5.5980 C   0  0  0  0  0  0
    2.9355   -2.0109   -5.3223 C   0  0  0  0  0  0
    2.6132   -0.4330   -3.5141 C   0  0  0  0  0  0
   -0.3485    5.2778   -0.7378 N   0  0  0  0  0  0
    3.1563    0.5797   -4.3071 C   0  0  0  0  0  0
    2.4957   -1.7320   -4.0315 C   0  0  0  0  0  0
    5.0090   -3.6145   -7.3001 C   0  0  0  0  0  0
    1.9282   -0.7010    1.4344 C   0  0  0  0  0  0
    5.3906   -3.1276  -10.0906 C   0  0  0  0  0  0
    1.5924    0.1548    2.6672 C   0  0  0  0  0  0
    5.6196   -4.5526   -8.1360 C   0  0  0  0  0  0
    5.8053   -4.3196   -9.4980 C   0  0  0  0  0  0
    3.3408    0.5149   -8.4121 H   0  0  0  0  0  0
   -0.7903   -2.2016    0.1437 H   0  0  0  0  0  0
   -3.0741   -1.3332    0.0385 H   0  0  0  0  0  0
    1.7911    0.9237    0.0557 H   0  0  0  0  0  0
    0.3336    2.8343   -0.0527 H   0  0  0  0  0  0
    2.0418    0.9396   -2.1103 H   0  0  0  0  0  0
   -2.1726    6.6845    0.3239 H   0  0  0  0  0  0
   -3.8766    3.6302   -0.1924 H   0  0  0  0  0  0
   -4.4023    1.2363   -0.1058 H   0  0  0  0  0  0
    4.0288    1.0960   -6.1884 H   0  0  0  0  0  0
    2.8229   -3.0141   -5.7057 H   0  0  0  0  0  0
   -0.1514    6.2673   -0.7753 H   0  0  0  0  0  0
    0.3010    4.6136   -1.1327 H   0  0  0  0  0  0
    3.2482    1.5870   -3.9263 H   0  0  0  0  0  0
    2.0503   -2.5332   -3.4628 H   0  0  0  0  0  0
    4.8884   -3.8145   -6.2461 H   0  0  0  0  0  0
    1.5287   -1.7066    1.5783 H   0  0  0  0  0  0
    3.0132   -0.8156    1.3927 H   0  0  0  0  0  0
    5.5439   -2.9544  -11.1457 H   0  0  0  0  0  0
    1.9988   -0.2937    3.5742 H   0  0  0  0  0  0
    0.5152    0.2532    2.8053 H   0  0  0  0  0  0
    2.0118    1.1575    2.5783 H   0  0  0  0  0  0
    5.9618   -5.4866   -7.7144 H   0  0  0  0  0  0
    6.2829   -5.0756  -10.1041 H   0  0  0  0  0  0
   -3.1930    5.3356    0.7788 H   0  0  0  0  0  0
  1  3  1  0  0  0
  1  9  1  0  0  0
  1 17  1  0  0  0
  2 10  1  0  0  0
  2  4  1  0  0  0
  2  6  2  0  0  0
  3  5  2  0  0  0
  3 34  1  0  0  0
  4 11  2  0  0  0
  4 15  1  0  0  0
  5 16  1  0  0  0
  6  8  1  0  0  0
  6 35  1  0  0  0
  7 14  1  0  0  0
  7 10  1  0  0  0
  7 19  2  0  0  0
  8 15  1  0  0  0
  8 36  1  0  0  0
  9 16  2  0  0  0
  9 28  1  0  0  0
 10 29  1  0  0  0
 10 37  1  0  0  0
 11 13  1  0  0  0
 11 38  1  0  0  0
 12 13  1  0  0  0
 12 18  2  0  0  0
 12 25  1  0  0  0
 13 20  2  0  0  0
 14 24  1  0  0  0
 14 39  1  0  0  0
 15 21  2  0  0  0
 16 30  1  0  0  0
 17 22  2  0  0  0
 17 23  1  0  0  0
 18 40  1  0  0  0
 18 58  1  0  0  0
 20 21  1  0  0  0
 20 41  1  0  0  0
 21 42  1  0  0  0
 22 26  1  0  0  0
 22 43  1  0  0  0
 23 27  2  0  0  0
 23 44  1  0  0  0
 24 27  1  0  0  0
 24 26  2  0  0  0
 25 45  1  0  0  0
 25 46  1  0  0  0
 26 47  1  0  0  0
 27 48  1  0  0  0
 28 32  2  0  0  0
 28 49  1  0  0  0
 29 31  1  0  0  0
 29 50  1  0  0  0
 29 51  1  0  0  0
 30 33  2  0  0  0
 30 52  1  0  0  0
 31 53  1  0  0  0
 31 54  1  0  0  0
 31 55  1  0  0  0
 32 33  1  0  0  0
 32 56  1  0  0  0
 33 57  1  0  0  0
M  CHG  1  18   1
M  END
> <chembl_id>
CHEMBL364191

> <chembl_pref_name>
None

> <s_m_source_file>
sdf/inactives_sanitized.sdf

> <i_m_source_file_index>
23

> <i_lp_mmshare_version>
49012

> <i_m_ct_stereo_status>
1

> <i_f3d_flags>
0

> <s_epik_input>
W2NIXTFbY0hdW2NIXVtjSF1jKGMxMiluW2NIXW4yLWMzW2NIXVtjSF1jKFtjSF1bY0hdMylbTkhdQyg9TylbQ0BIXShbQ0gyXVtDSDNdKWM0W2NIXVtuSF1jKGM0NSlbY0hdW2NIXWMoW2NIXTUpL0MoPU4vW0hdKVtOSDJd

> <s_epik_cmdline>
J2VwaWtfcHl0aG9uJywgJy1waHQnLCAnMC41JywgJy1waCcsICc3LjUnLCAnLW50JywgJy1tYScsICcyMDAnLCAnLWltYWUnLCAnPGluZmlsZS5tYWU+JywgJy1vbWFlJywgJzxvdXRmaWxlLm1hZT4n

> <r_epik_Ionization_Penalty>
  0.0112

> <r_epik_Ionization_Penalty_Charging>
  0.0010

> <r_epik_Ionization_Penalty_Neutral>
  0.0102

> <r_epik_State_Penalty>
  0.0078

> <r_epik_Charging_Adjusted_Penalty>
0.00877873498810205

> <i_epik_Tot_Q>
1

> <i_epik_Tot_abs_Q>
1

> <s_epik_Chemistry_Notes>
This compound has an imine and may undergo hydrolysis.

> <s_lp_Force_Field>
OPLS3e

> <r_lp_Energy>
42.796775

> <b_lp_Chiralities_Consistent>
1

> <s_lp_Variant>
sdf/inactives_sanitized.sdf:23-1

$$$$
sdf/inactives_sanitized.sdf:24
                    3D
 Schrodinger Suite 2020-1.
 52 55  0  0  1  0            999 V2000
    0.0241    0.0641    0.3710 C   0  0  0  0  0  0
   -0.7125    1.2832    0.1889 C   0  0  0  0  0  0
    2.2701   -0.7900    1.2653 C   0  0  0  0  0  0
    1.5326   -0.0578    0.1165 C   0  0  1  0  0  0
   -0.8237   -0.9610    0.7571 C   0  0  0  0  0  0
   -2.4930   -0.5117    0.9493 S   0  0  0  0  0  0
   -0.2667    2.5553   -0.2215 C   0  0  0  0  0  0
   -0.6797    4.9387   -0.7953 C   0  0  0  0  0  0
   -1.1581    3.6289   -0.3538 C   0  0  0  0  0  0
    2.1148   -0.2410    2.4916 N   0  0  0  0  0  0
   -2.1033    1.1275    0.4690 C   0  0  0  0  0  0
    4.4482   -1.8207    8.6912 N   0  0  0  0  0  0
    4.0638   -1.5669    7.6296 C   0  0  0  0  0  0
   -1.4435    5.6660   -1.6020 N   0  3  0  0  0  0
    1.8214   -0.6558   -1.2903 C   0  0  0  0  0  0
    2.9296   -1.8032    1.0299 O   0  0  0  0  0  0
   -2.5104    3.4277   -0.0617 C   0  0  0  0  0  0
   -3.0018    2.1939    0.3501 C   0  0  0  0  0  0
    2.6484   -0.6335    3.7340 C   0  0  0  0  0  0
    0.5075    5.3663   -0.3807 N   0  0  0  0  0  0
    3.5802   -1.2472    6.2946 C   0  0  0  0  0  0
    1.2771    0.1908   -2.4360 C   0  0  0  0  0  0
    2.1464    0.0441    4.8481 C   0  0  0  0  0  0
    3.6323   -1.6206    3.9099 C   0  0  0  0  0  0
    2.6070   -0.2617    6.1257 C   0  0  0  0  0  0
    4.0939   -1.9247    5.1881 C   0  0  0  0  0  0
    0.0489   -0.1293   -3.0219 C   0  0  0  0  0  0
    1.9990    1.3005   -2.8842 C   0  0  0  0  0  0
    1.4912    2.0914   -3.9114 C   0  0  0  0  0  0
   -0.4590    0.6630   -4.0480 C   0  0  0  0  0  0
    0.2641    1.7698   -4.4877 C   0  0  0  0  0  0
    1.9890    0.9327    0.1238 H   0  0  0  0  0  0
   -0.5383   -1.9857    0.9473 H   0  0  0  0  0  0
    0.7740    2.7102   -0.4607 H   0  0  0  0  0  0
    1.4937    0.5527    2.5433 H   0  0  0  0  0  0
   -2.3386    5.3078   -1.9023 H   0  0  0  0  0  0
    2.8969   -0.7662   -1.4440 H   0  0  0  0  0  0
    1.4242   -1.6703   -1.3647 H   0  0  0  0  0  0
   -3.2023    4.2519   -0.1530 H   0  0  0  0  0  0
   -4.0526    2.0652    0.5668 H   0  0  0  0  0  0
    0.8509    6.2673   -0.6797 H   0  0  0  0  0  0
    1.0602    4.7894    0.2367 H   0  0  0  0  0  0
    1.3925    0.8102    4.7327 H   0  0  0  0  0  0
    4.0654   -2.1590    3.0828 H   0  0  0  0  0  0
    2.2026    0.2713    6.9751 H   0  0  0  0  0  0
    4.8526   -2.6861    5.3068 H   0  0  0  0  0  0
   -0.5161   -0.9834   -2.6770 H   0  0  0  0  0  0
    2.9477    1.5536   -2.4333 H   0  0  0  0  0  0
    2.0461    2.9502   -4.2596 H   0  0  0  0  0  0
   -1.4094    0.4207   -4.5008 H   0  0  0  0  0  0
   -0.1298    2.3832   -5.2847 H   0  0  0  0  0  0
   -1.1262    6.5715   -1.9155 H   0  0  0  0  0  0
  1  2  1  0  0  0
  1  4  1  0  0  0
  1  5  2  0  0  0
  2  7  2  0  0  0
  2 11  1  0  0  0
  3  4  1  0  0  0
  3 10  1  0  0  0
  3 16  2  0  0  0
  4 15  1  0  0  0
  4 32  1  0  0  0
  5  6  1  0  0  0
  5 33  1  0  0  0
  6 11  1  0  0  0
  7  9  1  0  0  0
  7 34  1  0  0  0
  8  9  1  0  0  0
  8 14  2  0  0  0
  8 20  1  0  0  0
  9 17  2  0  0  0
 10 19  1  0  0  0
 10 35  1  0  0  0
 11 18  2  0  0  0
 12 13  3  0  0  0
 13 21  1  0  0  0
 14 36  1  0  0  0
 14 52  1  0  0  0
 15 22  1  0  0  0
 15 37  1  0  0  0
 15 38  1  0  0  0
 17 18  1  0  0  0
 17 39  1  0  0  0
 18 40  1  0  0  0
 19 23  2  0  0  0
 19 24  1  0  0  0
 20 41  1  0  0  0
 20 42  1  0  0  0
 21 25  2  0  0  0
 21 26  1  0  0  0
 22 27  2  0  0  0
 22 28  1  0  0  0
 23 25  1  0  0  0
 23 43  1  0  0  0
 24 26  2  0  0  0
 24 44  1  0  0  0
 25 45  1  0  0  0
 26 46  1  0  0  0
 27 30  1  0  0  0
 27 47  1  0  0  0
 28 29  2  0  0  0
 28 48  1  0  0  0
 29 31  1  0  0  0
 29 49  1  0  0  0
 30 31  2  0  0  0
 30 50  1  0  0  0
 31 51  1  0  0  0
M  CHG  1  14   1
M  END
> <chembl_id>
CHEMBL180207

> <chembl_pref_name>
None

> <s_m_source_file>
sdf/inactives_sanitized.sdf

> <i_m_source_file_index>
24

> <i_lp_mmshare_version>
49012

> <i_m_ct_stereo_status>
1

> <i_f3d_flags>
0

> <s_epik_input>
W0hdXE49QyhbTkgyXSlcYyhbY0hdMSlbY0hdW2NIXWMoYzEyKXNbY0hdYzJbQ0BIXShbQ0gyXWMzW2NIXVtjSF1bY0hdW2NIXVtjSF0zKUMoPU8pW05IXWM0W2NIXVtjSF1jKEMjTilbY0hdW2NIXTQ=

> <s_epik_cmdline>
J2VwaWtfcHl0aG9uJywgJy1waHQnLCAnMC41JywgJy1waCcsICc3LjUnLCAnLW50JywgJy1tYScsICcyMDAnLCAnLWltYWUnLCAnPGluZmlsZS5tYWU+JywgJy1vbWFlJywgJzxvdXRmaWxlLm1hZT4n

> <r_lp_tautomer_probability>
1

> <r_epik_Ionization_Penalty>
  0.0010

> <r_epik_Ionization_Penalty_Charging>
  0.0010

> <r_epik_Ionization_Penalty_Neutral>
  0.0000

> <r_epik_State_Penalty>
 -0.0000

> <r_epik_Charging_Adjusted_Penalty>
0.000984797499885888

> <i_epik_Tot_Q>
1

> <i_epik_Tot_abs_Q>
1

> <s_epik_Chemistry_Notes>
This compound has an imine and may undergo hydrolysis.

> <s_lp_Force_Field>
OPLS3e

> <r_lp_Energy>
36.346843

> <b_lp_Chiralities_Consistent>
1

> <s_lp_Variant>
sdf/inactives_sanitized.sdf:24-1

$$$$
sdf/inactives_sanitized.sdf:25
                    3D
 Schrodinger Suite 2020-1.
 61 65  0  0  1  0            999 V2000
   -8.0312    3.4693   -0.4458 C   0  0  0  0  0  0
   -6.7140    3.4706   -0.5039 N   0  0  0  0  0  0
    1.7552    0.2562    1.5033 C   0  0  0  0  0  0
   -6.3021    2.2478   -0.1136 N   0  0  0  0  0  0
    2.7116    1.2362    1.9360 C   0  0  0  0  0  0
   -8.8269    4.7020   -0.8377 C   0  0  0  0  0  0
   -0.1124   -0.0798   -0.2165 C   0  0  0  0  0  0
    1.4146    0.0009    0.0292 C   0  0  2  0  0  0
    1.2410   -0.4315    2.5903 C   0  0  0  0  0  0
   -8.5016    2.2188   -0.0261 C   0  0  0  0  0  0
    1.8396    0.0774    4.1421 S   0  0  0  0  0  0
   -7.3786    1.4469    0.1900 C   0  0  0  0  0  0
    3.4923    2.1328    1.1793 C   0  0  0  0  0  0
    5.2021    3.9294    0.9954 C   0  0  0  0  0  0
    4.3908    3.0135    1.7975 C   0  0  0  0  0  0
   -0.8131    1.0254    0.1251 N   0  0  0  0  0  0
    2.8657    1.2590    3.3547 C   0  0  0  0  0  0
   -4.9215    1.9202   -0.0570 C   0  0  0  0  0  0
    6.4498    4.1856    1.3708 N   0  3  0  0  0  0
    2.1977   -1.2229   -0.5265 C   0  0  0  0  0  0
   -0.6083   -1.0934   -0.7115 O   0  0  0  0  0  0
    4.5015    3.0015    3.1910 C   0  0  0  0  0  0
    3.7527    2.1395    3.9845 C   0  0  0  0  0  0
   -9.9801    4.7613   -0.1718 F   0  0  0  0  0  0
   -8.1618    5.8294   -0.5790 F   0  0  0  0  0  0
   -9.1125    4.6879   -2.1390 F   0  0  0  0  0  0
   -4.5189    0.5790   -0.0885 C   0  0  0  0  0  0
   -3.9495    2.9263    0.0371 C   0  0  0  0  0  0
   -2.1987    1.2586    0.0498 C   0  0  0  0  0  0
    4.6710    4.4803   -0.0899 N   0  0  0  0  0  0
   -2.5993    2.5947    0.0947 C   0  0  0  0  0  0
   -3.1680    0.2476   -0.0315 C   0  0  0  0  0  0
    3.7125   -1.0570   -0.4669 C   0  0  0  0  0  0
    4.3727   -0.3318   -1.4627 C   0  0  0  0  0  0
    4.4362   -1.6126    0.5922 C   0  0  0  0  0  0
    5.8159   -1.4382    0.6581 C   0  0  0  0  0  0
    5.7526   -0.1579   -1.3963 C   0  0  0  0  0  0
    6.4675   -0.7113   -0.3360 C   0  0  0  0  0  0
    1.7202    0.8560   -0.5748 H   0  0  0  0  0  0
    0.5164   -1.2321    2.5523 H   0  0  0  0  0  0
   -9.5317    1.9212    0.1055 H   0  0  0  0  0  0
   -7.2576    0.4283    0.5274 H   0  0  0  0  0  0
    3.4188    2.1353    0.1029 H   0  0  0  0  0  0
   -0.2729    1.8209    0.4313 H   0  0  0  0  0  0
    6.8248    3.7447    2.1981 H   0  0  0  0  0  0
    1.9097   -2.1344    0.0014 H   0  0  0  0  0  0
    1.9264   -1.4073   -1.5681 H   0  0  0  0  0  0
    5.1849    3.6830    3.6759 H   0  0  0  0  0  0
    3.8597    2.1500    5.0597 H   0  0  0  0  0  0
   -5.2410   -0.2205   -0.1613 H   0  0  0  0  0  0
   -4.2281    3.9698    0.0722 H   0  0  0  0  0  0
    5.2189    5.1147   -0.6524 H   0  0  0  0  0  0
    3.7182    4.2650   -0.3451 H   0  0  0  0  0  0
   -1.8673    3.3866    0.1696 H   0  0  0  0  0  0
   -2.9042   -0.7981   -0.0391 H   0  0  0  0  0  0
    3.8177    0.1009   -2.2825 H   0  0  0  0  0  0
    3.9308   -2.1700    1.3676 H   0  0  0  0  0  0
    6.3779   -1.8641    1.4763 H   0  0  0  0  0  0
    6.2663    0.4028   -2.1633 H   0  0  0  0  0  0
    7.5381   -0.5775   -0.2851 H   0  0  0  0  0  0
    7.0190    4.8196    0.8292 H   0  0  0  0  0  0
  1  2  2  0  0  0
  1  6  1  0  0  0
  1 10  1  0  0  0
  2  4  1  0  0  0
  3  8  1  0  0  0
  3  5  1  0  0  0
  3  9  2  0  0  0
  4 18  1  0  0  0
  4 12  1  0  0  0
  5 13  2  0  0  0
  5 17  1  0  0  0
  6 24  1  0  0  0
  6 25  1  0  0  0
  6 26  1  0  0  0
  7 16  1  0  0  0
  7  8  1  0  0  0
  7 21  2  0  0  0
  8 20  1  0  0  0
  8 39  1  0  0  0
  9 11  1  0  0  0
  9 40  1  0  0  0
 10 12  2  0  0  0
 10 41  1  0  0  0
 11 17  1  0  0  0
 12 42  1  0  0  0
 13 15  1  0  0  0
 13 43  1  0  0  0
 14 15  1  0  0  0
 14 19  2  0  0  0
 14 30  1  0  0  0
 15 22  2  0  0  0
 16 29  1  0  0  0
 16 44  1  0  0  0
 17 23  2  0  0  0
 18 27  2  0  0  0
 18 28  1  0  0  0
 19 45  1  0  0  0
 19 61  1  0  0  0
 20 33  1  0  0  0
 20 46  1  0  0  0
 20 47  1  0  0  0
 22 23  1  0  0  0
 22 48  1  0  0  0
 23 49  1  0  0  0
 27 32  1  0  0  0
 27 50  1  0  0  0
 28 31  2  0  0  0
 28 51  1  0  0  0
 29 31  1  0  0  0
 29 32  2  0  0  0
 30 52  1  0  0  0
 30 53  1  0  0  0
 31 54  1  0  0  0
 32 55  1  0  0  0
 33 34  2  0  0  0
 33 35  1  0  0  0
 34 37  1  0  0  0
 34 56  1  0  0  0
 35 36  2  0  0  0
 35 57  1  0  0  0
 36 38  1  0  0  0
 36 58  1  0  0  0
 37 38  2  0  0  0
 37 59  1  0  0  0
 38 60  1  0  0  0
M  CHG  1  19   1
M  END
> <chembl_id>
CHEMBL361327

> <chembl_pref_name>
None

> <s_m_source_file>
sdf/inactives_sanitized.sdf

> <i_m_source_file_index>
25

> <i_lp_mmshare_version>
49012

> <i_m_ct_stereo_status>
1

> <i_f3d_flags>
0

> <s_epik_input>
RkMoRikoRiljMW5uKFtjSF1bY0hdMSktYzJbY0hdW2NIXWMoW2NIXVtjSF0yKVtOSF1DKD1PKVtDQEhdKFtDSDJdYzNbY0hdW2NIXVtjSF1bY0hdW2NIXTMpYzRbY0hdc2MoYzQ1KVtjSF1bY0hdYyhbY0hdNSkvQyg9Ti9bSF0pW05IMl0=

> <s_epik_cmdline>
J2VwaWtfcHl0aG9uJywgJy1waHQnLCAnMC41JywgJy1waCcsICc3LjUnLCAnLW50JywgJy1tYScsICcyMDAnLCAnLWltYWUnLCAnPGluZmlsZS5tYWU+JywgJy1vbWFlJywgJzxvdXRmaWxlLm1hZT4n

> <r_lp_tautomer_probability>
1

> <r_epik_Ionization_Penalty>
  0.0010

> <r_epik_Ionization_Penalty_Charging>
  0.0010

> <r_epik_Ionization_Penalty_Neutral>
  0.0000

> <r_epik_State_Penalty>
 -0.0000

> <r_epik_Charging_Adjusted_Penalty>
0.000984797499885888

> <i_epik_Tot_Q>
1

> <i_epik_Tot_abs_Q>
1

> <s_epik_Chemistry_Notes>
This compound has an imine and may undergo hydrolysis.

> <s_lp_Force_Field>
OPLS3e

> <r_lp_Energy>
43.742892

> <b_lp_Chiralities_Consistent>
1

> <s_lp_Variant>
sdf/inactives_sanitized.sdf:25-1

$$$$
sdf/inactives_sanitized.sdf:26
                    3D
 Schrodinger Suite 2020-1.
 65 68  0  0  1  0            999 V2000
   -0.0116   -0.5898    1.0589 C   0  0  0  0  0  0
   -0.7775   -0.0271    2.1356 C   0  0  0  0  0  0
    0.4935   -1.8283    1.4191 C   0  0  0  0  0  0
    0.1636    0.0979   -0.3026 C   0  0  1  0  0  0
    0.1160   -2.3419    3.0375 S   0  0  0  0  0  0
    3.9247    3.1801    0.3791 C   0  0  2  0  0  0
   -1.4882    1.1879    2.2004 C   0  0  0  0  0  0
    1.6329    0.0869   -0.7930 C   0  0  0  0  0  0
    4.4670    2.9559    1.8138 C   0  0  0  0  0  0
   -2.9524    2.8054    3.3926 C   0  0  0  0  0  0
   -2.2000    1.5518    3.3518 C   0  0  0  0  0  0
   -0.7995   -0.8693    3.2875 C   0  0  0  0  0  0
    2.5472    0.5592    0.0786 N   0  0  0  0  0  0
    3.8996    0.6792   -0.2726 N   0  0  1  0  0  0
   -4.1220    2.8349    4.0204 N   0  3  0  0  0  0
    4.2615    2.0459   -0.6522 C   0  0  2  0  0  0
   -0.8444   -0.4517   -1.3522 C   0  0  0  0  0  0
    1.9157   -0.3235   -1.9222 O   0  0  0  0  0  0
    5.2347    2.0324    2.0958 O   0  0  0  0  0  0
   -2.1853    0.6960    4.4571 C   0  0  0  0  0  0
   -1.4940   -0.5103    4.4484 C   0  0  0  0  0  0
   -2.4487    3.8809    2.7981 N   0  0  0  0  0  0
    3.9816    3.8620    2.6911 O   0  0  0  0  0  0
   -2.3048   -0.2784   -0.9484 C   0  0  0  0  0  0
    4.3336    4.5713   -0.1729 C   0  0  0  0  0  0
    5.7396    2.1229   -1.1174 C   0  0  0  0  0  0
    4.3608    3.8187    4.0592 C   0  0  0  0  0  0
   -3.0046   -1.3450   -0.3763 C   0  0  0  0  0  0
   -2.9349    0.9558   -1.1300 C   0  0  0  0  0  0
    5.8131    4.6336   -0.5984 C   0  0  0  0  0  0
    6.1440    3.5259   -1.6161 C   0  0  0  0  0  0
   -4.2587    1.1256   -0.7333 C   0  0  0  0  0  0
   -4.3285   -1.1748    0.0197 C   0  0  0  0  0  0
   -4.9491    0.0598   -0.1598 C   0  0  0  0  0  0
    1.0918   -2.4775    0.7961 H   0  0  0  0  0  0
   -0.0508    1.1624   -0.2036 H   0  0  0  0  0  0
    2.8403    3.1915    0.4942 H   0  0  0  0  0  0
   -1.5117    1.8450    1.3449 H   0  0  0  0  0  0
    2.3226    0.9266    0.9917 H   0  0  0  0  0  0
    4.4571    0.3167    0.4883 H   0  0  0  0  0  0
   -4.4781    1.9958    4.4551 H   0  0  0  0  0  0
    3.6612    2.2799   -1.5340 H   0  0  0  0  0  0
   -0.7059    0.0505   -2.3120 H   0  0  0  0  0  0
   -0.6448   -1.5052   -1.5587 H   0  0  0  0  0  0
   -2.7224    0.9744    5.3519 H   0  0  0  0  0  0
   -1.5023   -1.1544    5.3162 H   0  0  0  0  0  0
   -2.9595    4.7516    2.8153 H   0  0  0  0  0  0
   -1.5546    3.8234    2.3327 H   0  0  0  0  0  0
    3.7276    4.7700   -1.0584 H   0  0  0  0  0  0
    4.0669    5.3774    0.5125 H   0  0  0  0  0  0
    6.4044    1.8429   -0.2992 H   0  0  0  0  0  0
    5.9153    1.4035   -1.9189 H   0  0  0  0  0  0
    3.8824    4.6340    4.6020 H   0  0  0  0  0  0
    5.4410    3.9254    4.1700 H   0  0  0  0  0  0
    4.0560    2.8783    4.5208 H   0  0  0  0  0  0
   -2.5220   -2.3005   -0.2292 H   0  0  0  0  0  0
   -2.3977    1.7839   -1.5694 H   0  0  0  0  0  0
    6.0361    5.6108   -1.0286 H   0  0  0  0  0  0
    6.4558    4.5331    0.2772 H   0  0  0  0  0  0
    7.2097    3.5431   -1.8469 H   0  0  0  0  0  0
    5.6290    3.7344   -2.5551 H   0  0  0  0  0  0
   -4.7480    2.0787   -0.8694 H   0  0  0  0  0  0
   -4.8710   -1.9959    0.4647 H   0  0  0  0  0  0
   -5.9763    0.1912    0.1469 H   0  0  0  0  0  0
   -4.6530    3.6927    4.0584 H   0  0  0  0  0  0
  1  2  1  0  0  0
  1  3  2  0  0  0
  1  4  1  0  0  0
  2  7  2  0  0  0
  2 12  1  0  0  0
  3  5  1  0  0  0
  3 35  1  0  0  0
  4  8  1  0  0  0
  4 17  1  0  0  0
  4 36  1  0  0  0
  5 12  1  0  0  0
  6 16  1  0  0  0
  6  9  1  0  0  0
  6 25  1  0  0  0
  6 37  1  0  0  0
  7 11  1  0  0  0
  7 38  1  0  0  0
  8 13  1  0  0  0
  8 18  2  0  0  0
  9 19  2  0  0  0
  9 23  1  0  0  0
 10 11  1  0  0  0
 10 15  2  0  0  0
 10 22  1  0  0  0
 11 20  2  0  0  0
 12 21  2  0  0  0
 13 14  1  0  0  0
 13 39  1  0  0  0
 14 16  1  0  0  0
 14 40  1  0  0  0
 15 41  1  0  0  0
 15 65  1  0  0  0
 16 26  1  0  0  0
 16 42  1  0  0  0
 17 24  1  0  0  0
 17 43  1  0  0  0
 17 44  1  0  0  0
 20 21  1  0  0  0
 20 45  1  0  0  0
 21 46  1  0  0  0
 22 47  1  0  0  0
 22 48  1  0  0  0
 23 27  1  0  0  0
 24 28  2  0  0  0
 24 29  1  0  0  0
 25 30  1  0  0  0
 25 49  1  0  0  0
 25 50  1  0  0  0
 26 31  1  0  0  0
 26 51  1  0  0  0
 26 52  1  0  0  0
 27 53  1  0  0  0
 27 54  1  0  0  0
 27 55  1  0  0  0
 28 33  1  0  0  0
 28 56  1  0  0  0
 29 32  2  0  0  0
 29 57  1  0  0  0
 30 31  1  0  0  0
 30 58  1  0  0  0
 30 59  1  0  0  0
 31 60  1  0  0  0
 31 61  1  0  0  0
 32 34  1  0  0  0
 32 62  1  0  0  0
 33 34  2  0  0  0
 33 63  1  0  0  0
 34 64  1  0  0  0
M  CHG  1  15   1
M  END
> <chembl_id>
CHEMBL433751

> <chembl_pref_name>
None

> <i_m_ct_stereo_status>
1

> <s_m_source_file>
sdf/inactives_sanitized.sdf

> <i_m_source_file_index>
26

> <i_lp_mmshare_version>
49012

> <i_f3d_flags>
0

> <s_epik_input>
W0hdXE49QyhbTkgyXSlcYyhbY0hdMSlbY0hdW2NIXWMoYzEyKXNbY0hdYzJbQ0BIXShbQ0gyXWMzW2NIXVtjSF1bY0hdW2NIXVtjSF0zKUMoPU8pW05IXVtOSF1bQ0BASF0oW0NASF00Qyg9TylPW0NIM10pW0NIMl1bQ0gyXVtDSDJdW0NIMl00

> <s_epik_cmdline>
J2VwaWtfcHl0aG9uJywgJy1waHQnLCAnMC41JywgJy1waCcsICc3LjUnLCAnLW50JywgJy1tYScsICcyMDAnLCAnLWltYWUnLCAnPGluZmlsZS5tYWU+JywgJy1vbWFlJywgJzxvdXRmaWxlLm1hZT4n

> <r_lp_tautomer_probability>
1

> <r_epik_Ionization_Penalty>
  0.0010

> <r_epik_Ionization_Penalty_Charging>
  0.0010

> <r_epik_Ionization_Penalty_Neutral>
  0.0000

> <r_epik_State_Penalty>
 -0.0000

> <r_epik_Charging_Adjusted_Penalty>
0.000984797499885888

> <i_epik_Tot_Q>
1

> <i_epik_Tot_abs_Q>
1

> <s_epik_Chemistry_Notes>
This compound has an ester and may undergo hydrolysis at high or low pH. This compound has an imine and may undergo hydrolysis.

> <s_lp_Force_Field>
OPLS3e

> <r_lp_Energy>
33.424216

> <b_lp_Chiralities_Consistent>
1

> <s_lp_Variant>
sdf/inactives_sanitized.sdf:26-1

$$$$
sdf/inactives_sanitized.sdf:27
                    3D
 Schrodinger Suite 2020-1.
 53 57  0  0  1  0            999 V2000
    0.2913    0.0243    0.3473 C   0  0  0  0  0  0
   -0.5445    1.1811    0.1854 C   0  0  0  0  0  0
    2.6257   -0.7242    1.0822 C   0  0  0  0  0  0
    1.7878    0.0088    0.0053 C   0  0  1  0  0  0
   -0.4554   -1.0502    0.8030 C   0  0  0  0  0  0
   -2.1400   -0.7203    1.0840 S   0  0  0  0  0  0
   -0.2194    2.4720   -0.2756 C   0  0  0  0  0  0
    4.9416   -1.6610    7.1357 N   0  0  0  0  0  0
    2.6103   -0.1586    2.3108 N   0  0  0  0  0  0
   -0.8455    4.7973   -0.8910 C   0  0  0  0  0  0
   -1.1962    3.4712   -0.3846 C   0  0  0  0  0  0
   -1.9018    0.9304    0.5488 C   0  0  0  0  0  0
    4.2490   -2.2112    4.9613 C   0  0  0  0  0  0
    5.2675   -2.9193    7.0521 C   0  0  0  0  0  0
    4.9088   -3.7324    5.5492 S   0  0  0  0  0  0
    4.3661   -1.2298    5.9812 C   0  0  0  0  0  0
    3.6752   -1.9062    3.7199 C   0  0  0  0  0  0
    3.2204   -0.5936    3.5031 C   0  0  0  0  0  0
   -1.4175    5.8674   -0.3513 N   0  3  0  0  0  0
    2.0318   -0.5273   -1.4350 C   0  0  0  0  0  0
    3.2547   -1.7432    0.7908 O   0  0  0  0  0  0
   -2.5105    3.1792   -0.0086 C   0  0  0  0  0  0
   -2.8832    1.9242    0.4596 C   0  0  0  0  0  0
    3.8981    0.0715    5.7543 C   0  0  0  0  0  0
    0.0354    4.8954   -1.8803 N   0  0  0  0  0  0
    3.3267    0.3651    4.5158 C   0  0  0  0  0  0
    1.3975    0.3305   -2.5246 C   0  0  0  0  0  0
    0.1533   -0.0199   -3.0568 C   0  0  0  0  0  0
    2.0543    1.4788   -2.9758 C   0  0  0  0  0  0
    1.4655    2.2781   -3.9520 C   0  0  0  0  0  0
   -0.4360    0.7812   -4.0311 C   0  0  0  0  0  0
    0.2223    1.9267   -4.4736 C   0  0  0  0  0  0
    2.1806    1.0265    0.0251 H   0  0  0  0  0  0
   -0.0845   -2.0463    0.9977 H   0  0  0  0  0  0
    0.7952    2.7018   -0.5620 H   0  0  0  0  0  0
    2.1367    0.7297    2.3857 H   0  0  0  0  0  0
    5.7377   -3.4535    7.8647 H   0  0  0  0  0  0
    3.5822   -2.6803    2.9747 H   0  0  0  0  0  0
   -2.0815    5.7550    0.4011 H   0  0  0  0  0  0
    3.1024   -0.5830   -1.6433 H   0  0  0  0  0  0
    1.6769   -1.5559   -1.5270 H   0  0  0  0  0  0
   -3.2699    3.9425   -0.0938 H   0  0  0  0  0  0
   -3.9083    1.7232    0.7360 H   0  0  0  0  0  0
    3.9737    0.8326    6.5171 H   0  0  0  0  0  0
    0.2884    5.8032   -2.2424 H   0  0  0  0  0  0
    0.4421    4.0579   -2.2718 H   0  0  0  0  0  0
    2.9646    1.3694    4.3455 H   0  0  0  0  0  0
   -0.3609   -0.9043   -2.7092 H   0  0  0  0  0  0
    3.0155    1.7544   -2.5665 H   0  0  0  0  0  0
    1.9701    3.1664   -4.3027 H   0  0  0  0  0  0
   -1.3991    0.5158   -4.4416 H   0  0  0  0  0  0
   -0.2351    2.5465   -5.2309 H   0  0  0  0  0  0
   -1.1881    6.7886   -0.6946 H   0  0  0  0  0  0
  1  2  1  0  0  0
  1  4  1  0  0  0
  1  5  2  0  0  0
  2  7  2  0  0  0
  2 12  1  0  0  0
  3  4  1  0  0  0
  3  9  1  0  0  0
  3 21  2  0  0  0
  4 20  1  0  0  0
  4 33  1  0  0  0
  5  6  1  0  0  0
  5 34  1  0  0  0
  6 12  1  0  0  0
  7 11  1  0  0  0
  7 35  1  0  0  0
  8 16  1  0  0  0
  8 14  2  0  0  0
  9 18  1  0  0  0
  9 36  1  0  0  0
 10 11  1  0  0  0
 10 19  2  0  0  0
 10 25  1  0  0  0
 11 22  2  0  0  0
 12 23  2  0  0  0
 13 17  2  0  0  0
 13 15  1  0  0  0
 13 16  1  0  0  0
 14 15  1  0  0  0
 14 37  1  0  0  0
 16 24  2  0  0  0
 17 18  1  0  0  0
 17 38  1  0  0  0
 18 26  2  0  0  0
 19 39  1  0  0  0
 19 53  1  0  0  0
 20 27  1  0  0  0
 20 40  1  0  0  0
 20 41  1  0  0  0
 22 23  1  0  0  0
 22 42  1  0  0  0
 23 43  1  0  0  0
 24 26  1  0  0  0
 24 44  1  0  0  0
 25 45  1  0  0  0
 25 46  1  0  0  0
 26 47  1  0  0  0
 27 28  2  0  0  0
 27 29  1  0  0  0
 28 31  1  0  0  0
 28 48  1  0  0  0
 29 30  2  0  0  0
 29 49  1  0  0  0
 30 32  1  0  0  0
 30 50  1  0  0  0
 31 32  2  0  0  0
 31 51  1  0  0  0
 32 52  1  0  0  0
M  CHG  1  19   1
M  END
> <chembl_id>
CHEMBL436278

> <chembl_pref_name>
None

> <i_m_ct_stereo_status>
1

> <s_m_source_file>
sdf/inactives_sanitized.sdf

> <i_m_source_file_index>
27

> <i_lp_mmshare_version>
49012

> <i_f3d_flags>
0

> <s_epik_input>
W0hdXE49QyhbTkgyXSlcYyhbY0hdMSlbY0hdW2NIXWMoYzEyKXNbY0hdYzJbQ0BIXShbQ0gyXWMzW2NIXVtjSF1bY0hdW2NIXVtjSF0zKUMoPU8pW05IXWMoW2NIXTQpW2NIXVtjSF1jKGM0NSluW2NIXXM1

> <s_epik_cmdline>
J2VwaWtfcHl0aG9uJywgJy1waHQnLCAnMC41JywgJy1waCcsICc3LjUnLCAnLW50JywgJy1tYScsICcyMDAnLCAnLWltYWUnLCAnPGluZmlsZS5tYWU+JywgJy1vbWFlJywgJzxvdXRmaWxlLm1hZT4n

> <r_lp_tautomer_probability>
1

> <r_epik_Ionization_Penalty>
  0.0010

> <r_epik_Ionization_Penalty_Charging>
  0.0010

> <r_epik_Ionization_Penalty_Neutral>
  0.0000

> <r_epik_State_Penalty>
 -0.0000

> <r_epik_Charging_Adjusted_Penalty>
0.000984797499885888

> <i_epik_Tot_Q>
1

> <i_epik_Tot_abs_Q>
1

> <s_epik_Chemistry_Notes>
This compound has an imine and may undergo hydrolysis.

> <s_lp_Force_Field>
OPLS3e

> <r_lp_Energy>
36.856301

> <b_lp_Chiralities_Consistent>
1

> <s_lp_Variant>
sdf/inactives_sanitized.sdf:27-1

$$$$
sdf/inactives_sanitized.sdf:28
                    3D
 Schrodinger Suite 2020-1.
 74 78  0  0  1  0            999 V2000
    1.6690   -0.5544   -1.1601 C   0  0  0  0  0  0
    2.6745   -0.0631   -2.0609 C   0  0  0  0  0  0
   -0.2045    0.1490    0.4182 C   0  0  0  0  0  0
    1.3201    0.1301    0.1679 C   0  0  1  0  0  0
    1.1170   -1.7283   -1.6493 C   0  0  0  0  0  0
   -2.7394    2.4745    1.0542 C   0  0  1  0  0  0
    1.7334   -2.2585   -3.1865 S   0  0  0  0  0  0
   -0.8878    1.1664   -0.1404 N   0  0  0  0  0  0
   -2.2610    2.0317    2.4585 C   0  0  0  0  0  0
    3.5070    1.0690   -1.9554 C   0  0  0  0  0  0
   -2.3332    1.4174   -0.0304 C   0  0  2  0  0  0
    5.3258    2.5344   -2.8070 C   0  0  0  0  0  0
    4.4518    1.3704   -2.9460 C   0  0  0  0  0  0
    2.8224   -0.8870   -3.2174 C   0  0  0  0  0  0
   -1.3503    2.8189    3.0607 N   0  0  0  0  0  0
    5.6220    3.2520   -3.8846 N   0  3  0  0  0  0
    2.1015   -0.5013    1.3539 C   0  0  0  0  0  0
   -0.7406   -0.7432    1.0781 O   0  0  0  0  0  0
   -2.6965    0.9962    2.9666 O   0  0  0  0  0  0
    4.5506    0.5386   -4.0651 C   0  0  0  0  0  0
    3.7505   -0.5876   -4.2212 C   0  0  0  0  0  0
    5.8035    2.8404   -1.6059 N   0  0  0  0  0  0
   -0.7651    2.5830    4.3808 C   0  0  0  0  0  0
    3.6099   -0.2979    1.2677 C   0  0  0  0  0  0
   -4.2833    2.6321    1.1139 C   0  0  0  0  0  0
   -1.7528    2.7010    5.5367 C   0  0  0  0  0  0
   -2.9309    1.8052   -1.4061 C   0  0  0  0  0  0
    4.4231   -1.3011    0.7328 C   0  0  0  0  0  0
    4.1753    0.9020    1.7088 C   0  0  0  0  0  0
   -2.1989    1.5519    6.1957 C   0  0  0  0  0  0
   -2.1728    3.9629    5.9675 C   0  0  0  0  0  0
   -4.8212    3.0879   -0.2542 C   0  0  0  0  0  0
   -4.4455    2.0888   -1.3617 C   0  0  0  0  0  0
    5.7972   -1.1010    0.6315 C   0  0  0  0  0  0
   -3.0556    4.0736    7.0387 C   0  0  0  0  0  0
   -3.0815    1.6633    7.2669 C   0  0  0  0  0  0
    5.5499    1.1002    1.6097 C   0  0  0  0  0  0
   -3.5070    2.9233    7.6823 C   0  0  0  0  0  0
    6.3541    0.0986    1.0698 C   0  0  0  0  0  0
    1.6107    1.1810    0.1237 H   0  0  0  0  0  0
    0.3508   -2.3201   -1.1691 H   0  0  0  0  0  0
   -2.2706    3.4379    0.8411 H   0  0  0  0  0  0
   -0.3632    1.8639   -0.6469 H   0  0  0  0  0  0
    3.4294    1.7163   -1.0956 H   0  0  0  0  0  0
   -2.8150    0.4720    0.2366 H   0  0  0  0  0  0
   -1.0523    3.6584    2.5863 H   0  0  0  0  0  0
    5.2394    2.9899   -4.7815 H   0  0  0  0  0  0
    1.7639   -0.0729    2.3004 H   0  0  0  0  0  0
    1.8809   -1.5676    1.4385 H   0  0  0  0  0  0
    5.2785    0.7621   -4.8311 H   0  0  0  0  0  0
    3.8539   -1.2184   -5.0924 H   0  0  0  0  0  0
    6.4126    3.6378   -1.4934 H   0  0  0  0  0  0
    5.5653    2.2643   -0.8113 H   0  0  0  0  0  0
   -0.2582    1.6158    4.3980 H   0  0  0  0  0  0
    0.0205    3.3255    4.5263 H   0  0  0  0  0  0
   -4.7798    1.6836    1.3321 H   0  0  0  0  0  0
   -4.5763    3.4042    1.8282 H   0  0  0  0  0  0
   -2.4289    2.7016   -1.7747 H   0  0  0  0  0  0
   -2.7357    1.0176   -2.1357 H   0  0  0  0  0  0
    3.9912   -2.2292    0.3872 H   0  0  0  0  0  0
    3.5507    1.6806    2.1224 H   0  0  0  0  0  0
   -1.8699    0.5743    5.8740 H   0  0  0  0  0  0
   -1.8203    4.8552    5.4708 H   0  0  0  0  0  0
   -5.9056    3.1990   -0.2098 H   0  0  0  0  0  0
   -4.4243    4.0746   -0.4981 H   0  0  0  0  0  0
   -4.7821    2.4624   -2.3294 H   0  0  0  0  0  0
   -4.9807    1.1522   -1.1974 H   0  0  0  0  0  0
    6.4282   -1.8727    0.2154 H   0  0  0  0  0  0
   -3.3881    5.0466    7.3692 H   0  0  0  0  0  0
   -3.4335    0.7768    7.7735 H   0  0  0  0  0  0
    5.9905    2.0258    1.9499 H   0  0  0  0  0  0
   -4.1917    3.0095    8.5133 H   0  0  0  0  0  0
    7.4205    0.2519    0.9928 H   0  0  0  0  0  0
    6.2240    4.0584   -3.8033 H   0  0  0  0  0  0
  1  2  1  0  0  0
  1  4  1  0  0  0
  1  5  2  0  0  0
  2 10  2  0  0  0
  2 14  1  0  0  0
  3  4  1  0  0  0
  3  8  1  0  0  0
  3 18  2  0  0  0
  4 17  1  0  0  0
  4 40  1  0  0  0
  5  7  1  0  0  0
  5 41  1  0  0  0
  6 11  1  0  0  0
  6  9  1  0  0  0
  6 25  1  0  0  0
  6 42  1  0  0  0
  7 14  1  0  0  0
  8 11  1  0  0  0
  8 43  1  0  0  0
  9 15  1  0  0  0
  9 19  2  0  0  0
 10 13  1  0  0  0
 10 44  1  0  0  0
 11 27  1  0  0  0
 11 45  1  0  0  0
 12 13  1  0  0  0
 12 16  2  0  0  0
 12 22  1  0  0  0
 13 20  2  0  0  0
 14 21  2  0  0  0
 15 23  1  0  0  0
 15 46  1  0  0  0
 16 47  1  0  0  0
 16 74  1  0  0  0
 17 24  1  0  0  0
 17 48  1  0  0  0
 17 49  1  0  0  0
 20 21  1  0  0  0
 20 50  1  0  0  0
 21 51  1  0  0  0
 22 52  1  0  0  0
 22 53  1  0  0  0
 23 26  1  0  0  0
 23 54  1  0  0  0
 23 55  1  0  0  0
 24 28  2  0  0  0
 24 29  1  0  0  0
 25 32  1  0  0  0
 25 56  1  0  0  0
 25 57  1  0  0  0
 26 30  2  0  0  0
 26 31  1  0  0  0
 27 33  1  0  0  0
 27 58  1  0  0  0
 27 59  1  0  0  0
 28 34  1  0  0  0
 28 60  1  0  0  0
 29 37  2  0  0  0
 29 61  1  0  0  0
 30 36  1  0  0  0
 30 62  1  0  0  0
 31 35  2  0  0  0
 31 63  1  0  0  0
 32 33  1  0  0  0
 32 64  1  0  0  0
 32 65  1  0  0  0
 33 66  1  0  0  0
 33 67  1  0  0  0
 34 39  2  0  0  0
 34 68  1  0  0  0
 35 38  1  0  0  0
 35 69  1  0  0  0
 36 38  2  0  0  0
 36 70  1  0  0  0
 37 39  1  0  0  0
 37 71  1  0  0  0
 38 72  1  0  0  0
 39 73  1  0  0  0
M  CHG  1  16   1
M  END
> <chembl_id>
CHEMBL182586

> <chembl_pref_name>
None

> <i_m_ct_stereo_status>
1

> <s_m_source_file>
sdf/inactives_sanitized.sdf

> <i_m_source_file_index>
28

> <i_lp_mmshare_version>
49012

> <i_f3d_flags>
0

> <s_epik_input>
W0hdXE49QyhbTkgyXSlcYyhbY0hdMSlbY0hdW2NIXWMoYzEyKXNbY0hdYzJbQ0BIXShbQ0gyXWMzW2NIXVtjSF1bY0hdW2NIXVtjSF0zKUMoPU8pW05IXVtDQEhdKFtDSDJdW0NIMl1bQ0gyXVtDSDJdNClbQ0BASF00Qyg9TylbTkhdW0NIMl1jNVtjSF1bY0hdW2NIXVtjSF1bY0hdNQ==

> <s_epik_cmdline>
J2VwaWtfcHl0aG9uJywgJy1waHQnLCAnMC41JywgJy1waCcsICc3LjUnLCAnLW50JywgJy1tYScsICcyMDAnLCAnLWltYWUnLCAnPGluZmlsZS5tYWU+JywgJy1vbWFlJywgJzxvdXRmaWxlLm1hZT4n

> <r_lp_tautomer_probability>
1

> <r_epik_Ionization_Penalty>
  0.0010

> <r_epik_Ionization_Penalty_Charging>
  0.0010

> <r_epik_Ionization_Penalty_Neutral>
  0.0000

> <r_epik_State_Penalty>
 -0.0000

> <r_epik_Charging_Adjusted_Penalty>
0.000984797499885888

> <i_epik_Tot_Q>
1

> <i_epik_Tot_abs_Q>
1

> <s_epik_Chemistry_Notes>
This compound has an imine and may undergo hydrolysis.

> <s_lp_Force_Field>
OPLS3e

> <r_lp_Energy>
45.49185

> <b_lp_Chiralities_Consistent>
1

> <s_lp_Variant>
sdf/inactives_sanitized.sdf:28-1

$$$$
sdf/inactives_sanitized.sdf:29
                    3D
 Schrodinger Suite 2020-1.
 59 62  0  0  1  0            999 V2000
    0.0268    0.1043   -0.0694 C   0  0  0  0  0  0
   -0.6088    1.3736    0.1484 C   0  0  0  0  0  0
    2.2482   -0.4922    1.0353 C   0  0  0  0  0  0
    1.5380   -0.0637   -0.2703 C   0  0  1  0  0  0
   -0.9090   -0.9153   -0.0656 C   0  0  0  0  0  0
    2.2405    1.2577    4.4464 C   0  0  2  0  0  0
   -2.5560   -0.4099    0.1733 S   0  0  0  0  0  0
    1.9612    0.2359    2.1306 N   0  0  0  0  0  0
   -0.0483    2.6639    0.2352 C   0  0  0  0  0  0
    2.5180    0.0646    3.4783 C   0  0  2  0  0  0
    2.6829    2.6056    3.8238 C   0  0  0  0  0  0
   -0.2589    5.1253    0.5182 C   0  0  0  0  0  0
   -0.8542    3.7919    0.4434 C   0  0  0  0  0  0
   -2.0240    1.2551    0.2929 C   0  0  0  0  0  0
   -0.8949    6.1468   -0.0436 N   0  3  0  0  0  0
    1.8806   -0.9657   -1.4909 C   0  0  0  0  0  0
    3.0472   -1.4306    1.0455 O   0  0  0  0  0  0
    3.8803    2.9520    3.9372 O   0  0  0  0  0  0
   -2.2358    3.6247    0.5729 C   0  0  0  0  0  0
   -2.8381    2.3735    0.5053 C   0  0  0  0  0  0
    0.8998    5.2823    1.1457 N   0  0  0  0  0  0
    1.8373    3.2005    3.1187 O   0  5  0  0  0  0
    1.3563   -0.4215   -2.8157 C   0  0  0  0  0  0
    2.9322    1.0529    5.8188 C   0  0  0  0  0  0
    2.1091   -1.2756    4.1568 C   0  0  0  0  0  0
    0.2027   -0.9619   -3.3911 C   0  0  0  0  0  0
    2.0294    0.6270   -3.4492 C   0  0  0  0  0  0
    2.3893   -0.2181    6.4898 C   0  0  0  0  0  0
    2.6478   -1.4468    5.5956 C   0  0  0  0  0  0
   -0.2786   -0.4516   -4.5940 C   0  0  0  0  0  0
    1.5490    1.1356   -4.6529 C   0  0  0  0  0  0
    0.3968    0.5944   -5.2193 C   0  0  0  0  0  0
    1.9836    0.9037   -0.5041 H   0  0  0  0  0  0
   -0.7048   -1.9677   -0.1992 H   0  0  0  0  0  0
    1.1659    1.3460    4.6228 H   0  0  0  0  0  0
    1.2791    0.9747    2.0394 H   0  0  0  0  0  0
    1.0180    2.7985    0.1366 H   0  0  0  0  0  0
    3.6025    0.0245    3.3434 H   0  0  0  0  0  0
   -1.7750    5.9910   -0.5126 H   0  0  0  0  0  0
    2.9627   -1.0728   -1.5909 H   0  0  0  0  0  0
    1.5160   -1.9831   -1.3363 H   0  0  0  0  0  0
   -2.8612    4.4890    0.7416 H   0  0  0  0  0  0
   -3.9081    2.2723    0.6155 H   0  0  0  0  0  0
    1.3233    6.1959    1.2088 H   0  0  0  0  0  0
    1.3418    4.4872    1.5898 H   0  0  0  0  0  0
    4.0116    0.9375    5.6997 H   0  0  0  0  0  0
    2.7559    1.9042    6.4791 H   0  0  0  0  0  0
    1.0201   -1.3237    4.2036 H   0  0  0  0  0  0
    2.4332   -2.1270    3.5576 H   0  0  0  0  0  0
   -0.3239   -1.7714   -2.9069 H   0  0  0  0  0  0
    2.9211    1.0488   -3.0083 H   0  0  0  0  0  0
    2.8642   -0.3594    7.4614 H   0  0  0  0  0  0
    1.3202   -0.1140    6.6818 H   0  0  0  0  0  0
    2.2085   -2.3349    6.0512 H   0  0  0  0  0  0
    3.7218   -1.6337    5.5503 H   0  0  0  0  0  0
   -1.1713   -0.8647   -5.0401 H   0  0  0  0  0  0
    2.0670    1.9459   -5.1445 H   0  0  0  0  0  0
    0.0235    0.9894   -6.1528 H   0  0  0  0  0  0
   -0.4934    7.0720   -0.0028 H   0  0  0  0  0  0
  1  2  1  0  0  0
  1  4  1  0  0  0
  1  5  2  0  0  0
  2  9  2  0  0  0
  2 14  1  0  0  0
  3  4  1  0  0  0
  3  8  1  0  0  0
  3 17  2  0  0  0
  4 16  1  0  0  0
  4 33  1  0  0  0
  5  7  1  0  0  0
  5 34  1  0  0  0
  6 10  1  0  0  0
  6 11  1  0  0  0
  6 24  1  0  0  0
  6 35  1  0  0  0
  7 14  1  0  0  0
  8 10  1  0  0  0
  8 36  1  0  0  0
  9 13  1  0  0  0
  9 37  1  0  0  0
 10 25  1  0  0  0
 10 38  1  0  0  0
 11 18  2  0  0  0
 11 22  1  0  0  0
 12 13  1  0  0  0
 12 15  2  0  0  0
 12 21  1  0  0  0
 13 19  2  0  0  0
 14 20  2  0  0  0
 15 39  1  0  0  0
 15 59  1  0  0  0
 16 23  1  0  0  0
 16 40  1  0  0  0
 16 41  1  0  0  0
 19 20  1  0  0  0
 19 42  1  0  0  0
 20 43  1  0  0  0
 21 44  1  0  0  0
 21 45  1  0  0  0
 23 26  2  0  0  0
 23 27  1  0  0  0
 24 28  1  0  0  0
 24 46  1  0  0  0
 24 47  1  0  0  0
 25 29  1  0  0  0
 25 48  1  0  0  0
 25 49  1  0  0  0
 26 30  1  0  0  0
 26 50  1  0  0  0
 27 31  2  0  0  0
 27 51  1  0  0  0
 28 29  1  0  0  0
 28 52  1  0  0  0
 28 53  1  0  0  0
 29 54  1  0  0  0
 29 55  1  0  0  0
 30 32  2  0  0  0
 30 56  1  0  0  0
 31 32  1  0  0  0
 31 57  1  0  0  0
 32 58  1  0  0  0
M  CHG  2  15   1  22  -1
M  END
> <chembl_id>
CHEMBL183172

> <chembl_pref_name>
None

> <i_m_ct_stereo_status>
1

> <s_m_source_file>
sdf/inactives_sanitized.sdf

> <i_m_source_file_index>
29

> <i_lp_mmshare_version>
49012

> <i_f3d_flags>
0

> <s_epik_input>
W0NIMl0xW0NIMl1bQ0gyXVtDSDJdW0NASF0oW0NAQEhdMUMoPU8pW09IXSlbTkhdQyg9TylbQ0BASF0oW0NIMl1jMltjSF1bY0hdW2NIXVtjSF1bY0hdMiljM1tjSF1zYyhjMzQpW2NIXVtjSF1jKFtjSF00KS9DKD1OL1tIXSlbTkgyXQ==

> <s_epik_cmdline>
J2VwaWtfcHl0aG9uJywgJy1waHQnLCAnMC41JywgJy1waCcsICc3LjUnLCAnLW50JywgJy1tYScsICcyMDAnLCAnLWltYWUnLCAnPGluZmlsZS5tYWU+JywgJy1vbWFlJywgJzxvdXRmaWxlLm1hZT4n

> <r_lp_tautomer_probability>
1

> <r_epik_Ionization_Penalty>
  0.0014

> <r_epik_Ionization_Penalty_Charging>
  0.0014

> <r_epik_Ionization_Penalty_Neutral>
  0.0000

> <r_epik_State_Penalty>
 -0.0000

> <r_epik_Charging_Adjusted_Penalty>
0.00144792666902985

> <i_epik_Tot_Q>
0

> <i_epik_Tot_abs_Q>
2

> <s_epik_Chemistry_Notes>
This compound has an imine and may undergo hydrolysis.

> <s_lp_Force_Field>
OPLS3e

> <r_lp_Energy>
24.950283

> <b_lp_Chiralities_Consistent>
1

> <s_lp_Variant>
sdf/inactives_sanitized.sdf:29-1

$$$$
sdf/inactives_sanitized.sdf:30
                    3D
 Schrodinger Suite 2020-1.
 75 79  0  0  1  0            999 V2000
  -10.9090   -4.6189   -2.8443 C   0  0  0  0  0  0
   -9.5537   -4.6922   -2.4229 O   0  0  0  0  0  0
   -8.6498   -3.7826   -2.8394 C   0  0  0  0  0  0
   -8.9076   -2.8411   -3.5925 O   0  0  0  0  0  0
   -7.4164   -4.1072   -2.2828 N   0  0  0  0  0  0
   -6.1798   -3.4509   -2.4024 C   0  0  0  0  0  0
   -5.0802   -4.0915   -1.8295 C   0  0  0  0  0  0
   -3.8121   -3.5192   -1.9000 C   0  0  0  0  0  0
   -3.6086   -2.2936   -2.5427 C   0  0  0  0  0  0
   -4.7241   -1.6282   -3.0973 C   0  0  0  0  0  0
   -4.6304   -0.3997   -3.7715 N   0  0  0  0  0  0
   -4.4059    0.8263   -3.2454 C   0  0  0  0  0  0
   -4.4264    1.8083   -3.9867 O   0  0  0  0  0  0
   -4.1220    1.0447   -1.7348 C   0  0  2  0  0  0
   -5.2952    1.7794   -1.0546 C   0  0  0  0  0  0
   -2.7710    1.7927   -1.5299 C   0  0  0  0  0  0
   -2.1703    1.6966   -0.1015 C   0  0  0  0  0  0
   -0.6184    1.6244   -0.0548 C   0  0  0  0  0  0
   -0.0063    0.1906   -0.1576 C   0  0  2  0  0  0
    1.4664    0.1326    0.0420 N   0  0  0  0  0  0
    2.3463    1.2110   -0.5012 C   0  0  0  0  0  0
    3.7264    1.2611    0.2076 C   0  0  0  0  0  0
    4.3029   -0.1436    0.2503 C   0  0  0  0  0  0
    3.4459   -1.1720    0.4092 C   0  0  0  0  0  0
    2.0056   -1.0528    0.4869 C   0  0  0  0  0  0
    1.3412   -1.9756    0.9628 O   0  0  0  0  0  0
    5.7720   -0.3491    0.2988 C   0  0  0  0  0  0
    6.5512    0.4889    1.1081 C   0  0  0  0  0  0
    7.9295    0.3110    1.2073 C   0  0  0  0  0  0
    8.5510   -0.7147    0.5012 C   0  0  0  0  0  0
    7.7970   -1.5603   -0.3109 C   0  0  0  0  0  0
    8.5962   -2.8271   -1.1752 Cl  0  0  0  0  0  0
    6.4113   -1.3789   -0.4234 C   0  0  0  0  0  0
    5.6926   -2.2141   -1.2467 O   0  0  0  0  0  0
    5.4849   -1.7048   -2.5580 C   0  0  0  0  0  0
   -0.4842   -0.5354   -1.4190 C   0  0  0  0  0  0
   -1.6636   -1.2799   -1.3724 C   0  0  0  0  0  0
   -2.2431   -1.7135   -2.5672 C   0  0  0  0  0  0
   -1.5477   -1.5011   -3.7640 C   0  0  0  0  0  0
   -0.3227   -0.8315   -3.7215 C   0  0  0  0  0  0
    0.2053   -0.3312   -2.5752 N   0  0  0  0  0  0
   -5.9925   -2.2146   -3.0390 C   0  0  0  0  0  0
  -11.4794   -5.4321   -2.3959 H   0  0  0  0  0  0
  -10.9873   -4.7069   -3.9289 H   0  0  0  0  0  0
  -11.3649   -3.6760   -2.5389 H   0  0  0  0  0  0
   -7.4023   -4.9376   -1.7089 H   0  0  0  0  0  0
   -5.1989   -5.0413   -1.3275 H   0  0  0  0  0  0
   -2.9775   -4.0383   -1.4504 H   0  0  0  0  0  0
   -4.8758   -0.4296   -4.7504 H   0  0  0  0  0  0
   -4.0466    0.0753   -1.2481 H   0  0  0  0  0  0
   -6.2296    1.2279   -1.1692 H   0  0  0  0  0  0
   -5.4489    2.7752   -1.4731 H   0  0  0  0  0  0
   -5.1197    1.8956    0.0153 H   0  0  0  0  0  0
   -2.0431    1.4157   -2.2478 H   0  0  0  0  0  0
   -2.8816    2.8441   -1.8020 H   0  0  0  0  0  0
   -2.5023    2.5699    0.4618 H   0  0  0  0  0  0
   -2.5827    0.8438    0.4388 H   0  0  0  0  0  0
   -0.2192    2.2782   -0.8304 H   0  0  0  0  0  0
   -0.2939    2.0560    0.8933 H   0  0  0  0  0  0
   -0.4447   -0.3460    0.6865 H   0  0  0  0  0  0
    2.5746    0.9031   -1.5230 H   0  0  0  0  0  0
    1.8598    2.1788   -0.5991 H   0  0  0  0  0  0
    4.3965    1.9547   -0.3014 H   0  0  0  0  0  0
    3.5778    1.6256    1.2250 H   0  0  0  0  0  0
    3.8441   -2.1711    0.5175 H   0  0  0  0  0  0
    6.0890    1.2824    1.6776 H   0  0  0  0  0  0
    8.5149    0.9652    1.8367 H   0  0  0  0  0  0
    9.6192   -0.8524    0.5855 H   0  0  0  0  0  0
    4.9179   -2.4295   -3.1423 H   0  0  0  0  0  0
    6.4305   -1.5281   -3.0733 H   0  0  0  0  0  0
    4.9159   -0.7737   -2.5446 H   0  0  0  0  0  0
   -2.1906   -1.4053   -0.4371 H   0  0  0  0  0  0
   -1.9580   -1.8284   -4.7083 H   0  0  0  0  0  0
    0.2363   -0.6497   -4.6275 H   0  0  0  0  0  0
   -6.8200   -1.6836   -3.4824 H   0  0  0  0  0  0
  1  2  1  0  0  0
  1 43  1  0  0  0
  1 44  1  0  0  0
  1 45  1  0  0  0
  2  3  1  0  0  0
  3  4  2  0  0  0
  3  5  1  0  0  0
  5  6  1  0  0  0
  5 46  1  0  0  0
  6  7  2  0  0  0
  6 42  1  0  0  0
  7  8  1  0  0  0
  7 47  1  0  0  0
  8  9  2  0  0  0
  8 48  1  0  0  0
  9 10  1  0  0  0
  9 38  1  0  0  0
 10 11  1  0  0  0
 10 42  2  0  0  0
 11 12  1  0  0  0
 11 49  1  0  0  0
 12 13  2  0  0  0
 12 14  1  0  0  0
 14 15  1  0  0  0
 14 16  1  0  0  0
 14 50  1  0  0  0
 15 51  1  0  0  0
 15 52  1  0  0  0
 15 53  1  0  0  0
 16 17  1  0  0  0
 16 54  1  0  0  0
 16 55  1  0  0  0
 17 18  1  0  0  0
 17 56  1  0  0  0
 17 57  1  0  0  0
 18 19  1  0  0  0
 18 58  1  0  0  0
 18 59  1  0  0  0
 19 20  1  0  0  0
 19 36  1  0  0  0
 19 60  1  0  0  0
 20 21  1  0  0  0
 20 25  1  0  0  0
 21 22  1  0  0  0
 21 61  1  0  0  0
 21 62  1  0  0  0
 22 23  1  0  0  0
 22 63  1  0  0  0
 22 64  1  0  0  0
 23 24  2  0  0  0
 23 27  1  0  0  0
 24 25  1  0  0  0
 24 65  1  0  0  0
 25 26  2  0  0  0
 27 28  2  0  0  0
 27 33  1  0  0  0
 28 29  1  0  0  0
 28 66  1  0  0  0
 29 30  2  0  0  0
 29 67  1  0  0  0
 30 31  1  0  0  0
 30 68  1  0  0  0
 31 32  1  0  0  0
 31 33  2  0  0  0
 33 34  1  0  0  0
 34 35  1  0  0  0
 35 69  1  0  0  0
 35 70  1  0  0  0
 35 71  1  0  0  0
 36 37  1  0  0  0
 36 41  2  0  0  0
 37 38  2  0  0  0
 37 72  1  0  0  0
 38 39  1  0  0  0
 39 40  2  0  0  0
 39 73  1  0  0  0
 40 41  1  0  0  0
 40 74  1  0  0  0
 42 75  1  0  0  0
M  END
> <chembl_id>
CHEMBL4110220

> <chembl_pref_name>
None

> <i_m_ct_stereo_status>
1

> <s_m_source_file>
sdf/inactives_sanitized.sdf

> <i_m_source_file_index>
30

> <i_lp_mmshare_version>
49012

> <i_f3d_flags>
0

> <s_epik_input>
W0NIM11PQyg9TylbTkhdYyhbY0hdW2NIXTEpW2NIXWMoYzEyKVtOSF1DKD1PKVtDQEhdKFtDSDNdKVtDSDJdW0NIMl1bQ0gyXVtDQEBIXShjM1tjSF1jMltjSF1bY0hdbjMpTjRbQ0gyXVtDSDJdQyg9W0NIXUM0PU8pYzVbY0hdW2NIXVtjSF1jKENsKWM1T1tDSDNd

> <s_epik_cmdline>
J2VwaWtfcHl0aG9uJywgJy1waHQnLCAnMC41JywgJy1waCcsICc3LjUnLCAnLW50JywgJy1tYScsICcyMDAnLCAnLWltYWUnLCAnPGluZmlsZS5tYWU+JywgJy1vbWFlJywgJzxvdXRmaWxlLm1hZT4n

> <r_lp_tautomer_probability>
1

> <r_epik_Ionization_Penalty>
  0.0001

> <r_epik_Ionization_Penalty_Charging>
  0.0000

> <r_epik_Ionization_Penalty_Neutral>
  0.0001

> <r_epik_State_Penalty>
 -0.0000

> <r_epik_Charging_Adjusted_Penalty>
0

> <i_epik_Tot_Q>
0

> <i_epik_Tot_abs_Q>
0

> <s_epik_Chemistry_Notes>
This compound has an ester and may undergo hydrolysis at high or low pH.

> <s_lp_Force_Field>
OPLS3e

> <r_lp_Energy>
100.085152

> <b_lp_Chiralities_Consistent>
1

> <s_lp_Variant>
sdf/inactives_sanitized.sdf:30-1

$$$$
sdf/inactives_sanitized.sdf:31
                    3D
 Schrodinger Suite 2020-1.
 72 76  0  0  1  0            999 V2000
   -3.3772    0.7457   -0.3321 C   0  0  0  0  0  0
   -2.1445    0.1041   -0.6288 O   0  0  0  0  0  0
   -0.9719    0.6437   -0.2394 C   0  0  0  0  0  0
   -0.8663    1.7038    0.3812 O   0  0  0  0  0  0
    0.0543   -0.2012   -0.6507 N   0  0  0  0  0  0
    1.4436   -0.0648   -0.4917 C   0  0  0  0  0  0
    2.0772    1.0707    0.0329 C   0  0  0  0  0  0
    3.4654    1.1075    0.1496 C   0  0  0  0  0  0
    4.2562    0.0260   -0.2535 C   0  0  0  0  0  0
    3.6154   -1.1234   -0.7656 C   0  0  0  0  0  0
    4.3101   -2.2596   -1.2096 N   0  0  0  0  0  0
    4.9002   -3.2601   -0.5052 C   0  0  0  0  0  0
    5.4016   -4.1775   -1.1554 O   0  0  0  0  0  0
    5.0526   -3.3333    1.0562 C   0  0  2  0  0  0
    4.5668   -4.6984    1.5997 C   0  0  0  0  0  0
    4.2317   -2.3739    1.7005 O   0  0  0  0  0  0
    6.5579   -3.1100    1.4340 C   0  0  0  0  0  0
    6.8966   -2.6351    2.8774 C   0  0  0  0  0  0
    8.2540   -1.8823    2.9992 C   0  0  0  0  0  0
    8.2221   -0.3310    2.7814 C   0  0  2  0  0  0
    7.6709    0.4884    3.9051 N   0  0  0  0  0  0
    7.2703   -0.1543    5.1952 C   0  0  0  0  0  0
    6.2266    0.6859    5.9769 C   0  0  0  0  0  0
    6.7219    2.1172    6.0662 C   0  0  0  0  0  0
    7.4050    2.6108    5.0151 C   0  0  0  0  0  0
    7.7844    1.8619    3.8349 C   0  0  0  0  0  0
    8.1516    2.4790    2.8336 O   0  0  0  0  0  0
    6.2225    3.0312    7.1229 C   0  0  0  0  0  0
    4.8511    3.1173    7.4183 C   0  0  0  0  0  0
    3.9442    2.3827    6.7324 F   0  0  0  0  0  0
    4.3928    3.9781    8.4153 C   0  0  0  0  0  0
    5.2914    4.7646    9.1306 C   0  0  0  0  0  0
    6.6546    4.6919    8.8520 C   0  0  0  0  0  0
    7.7581    5.6714    9.7513 Cl  0  0  0  0  0  0
    7.1200    3.8293    7.8544 C   0  0  0  0  0  0
    8.4508    3.7603    7.6068 F   0  0  0  0  0  0
    7.6356   -0.0103    1.3995 C   0  0  0  0  0  0
    6.2543    0.1215    1.2252 C   0  0  0  0  0  0
    5.7263    0.1059   -0.0686 C   0  0  0  0  0  0
    6.6129    0.0872   -1.1522 C   0  0  0  0  0  0
    7.9863    0.0484   -0.8989 C   0  0  0  0  0  0
    8.5048   -0.0233    0.3542 N   0  0  0  0  0  0
    2.2238   -1.1498   -0.8968 C   0  0  0  0  0  0
   -4.2040    0.1622   -0.7370 H   0  0  0  0  0  0
   -3.4167    1.7426   -0.7735 H   0  0  0  0  0  0
   -3.5217    0.8369    0.7455 H   0  0  0  0  0  0
   -0.2376   -1.0407   -1.1291 H   0  0  0  0  0  0
    1.5242    1.9387    0.3535 H   0  0  0  0  0  0
    3.9317    1.9921    0.5595 H   0  0  0  0  0  0
    4.2779   -2.3956   -2.2094 H   0  0  0  0  0  0
    5.1685   -5.5243    1.2171 H   0  0  0  0  0  0
    3.5287   -4.8982    1.3271 H   0  0  0  0  0  0
    4.6304   -4.7424    2.6882 H   0  0  0  0  0  0
    4.3580   -2.4540    2.6485 H   0  0  0  0  0  0
    7.1165   -4.0281    1.2430 H   0  0  0  0  0  0
    6.9987   -2.4102    0.7287 H   0  0  0  0  0  0
    6.1111   -1.9980    3.2798 H   0  0  0  0  0  0
    6.9116   -3.5110    3.5272 H   0  0  0  0  0  0
    8.7037   -2.0962    3.9694 H   0  0  0  0  0  0
    8.9608   -2.3206    2.2925 H   0  0  0  0  0  0
    9.2755   -0.0441    2.7428 H   0  0  0  0  0  0
    7.0219   -1.2101    5.1200 H   0  0  0  0  0  0
    8.1675   -0.1244    5.8158 H   0  0  0  0  0  0
    5.2848    0.6523    5.4276 H   0  0  0  0  0  0
    6.0465    0.2665    6.9673 H   0  0  0  0  0  0
    7.6717    3.6587    5.0177 H   0  0  0  0  0  0
    3.3365    4.0393    8.6321 H   0  0  0  0  0  0
    4.9280    5.4299    9.9003 H   0  0  0  0  0  0
    5.5939    0.1007    2.0802 H   0  0  0  0  0  0
    6.2453    0.0840   -2.1679 H   0  0  0  0  0  0
    8.6946    0.0313   -1.7138 H   0  0  0  0  0  0
    1.7451   -2.0297   -1.3053 H   0  0  0  0  0  0
  1  2  1  0  0  0
  1 44  1  0  0  0
  1 45  1  0  0  0
  1 46  1  0  0  0
  2  3  1  0  0  0
  3  4  2  0  0  0
  3  5  1  0  0  0
  5  6  1  0  0  0
  5 47  1  0  0  0
  6  7  2  0  0  0
  6 43  1  0  0  0
  7  8  1  0  0  0
  7 48  1  0  0  0
  8  9  2  0  0  0
  8 49  1  0  0  0
  9 10  1  0  0  0
  9 39  1  0  0  0
 10 11  1  0  0  0
 10 43  2  0  0  0
 11 12  1  0  0  0
 11 50  1  0  0  0
 12 13  2  0  0  0
 12 14  1  0  0  0
 14 15  1  0  0  0
 14 16  1  0  0  0
 14 17  1  0  0  0
 15 51  1  0  0  0
 15 52  1  0  0  0
 15 53  1  0  0  0
 16 54  1  0  0  0
 17 18  1  0  0  0
 17 55  1  0  0  0
 17 56  1  0  0  0
 18 19  1  0  0  0
 18 57  1  0  0  0
 18 58  1  0  0  0
 19 20  1  0  0  0
 19 59  1  0  0  0
 19 60  1  0  0  0
 20 21  1  0  0  0
 20 37  1  0  0  0
 20 61  1  0  0  0
 21 22  1  0  0  0
 21 26  1  0  0  0
 22 23  1  0  0  0
 22 62  1  0  0  0
 22 63  1  0  0  0
 23 24  1  0  0  0
 23 64  1  0  0  0
 23 65  1  0  0  0
 24 25  2  0  0  0
 24 28  1  0  0  0
 25 26  1  0  0  0
 25 66  1  0  0  0
 26 27  2  0  0  0
 28 29  2  0  0  0
 28 35  1  0  0  0
 29 30  1  0  0  0
 29 31  1  0  0  0
 31 32  2  0  0  0
 31 67  1  0  0  0
 32 33  1  0  0  0
 32 68  1  0  0  0
 33 34  1  0  0  0
 33 35  2  0  0  0
 35 36  1  0  0  0
 37 38  1  0  0  0
 37 42  2  0  0  0
 38 39  2  0  0  0
 38 69  1  0  0  0
 39 40  1  0  0  0
 40 41  2  0  0  0
 40 70  1  0  0  0
 41 42  1  0  0  0
 41 71  1  0  0  0
 43 72  1  0  0  0
M  END
> <chembl_id>
CHEMBL3906303

> <chembl_pref_name>
None

> <i_m_ct_stereo_status>
1

> <s_m_source_file>
sdf/inactives_sanitized.sdf

> <i_m_source_file_index>
31

> <i_lp_mmshare_version>
49012

> <i_f3d_flags>
0

> <s_epik_input>
W0NIM11PQyg9TylbTkhdYyhbY0hdW2NIXTEpW2NIXWMoYzEyKVtOSF1DKD1PKVtDQF0oW0NIM10pKFtPSF0pW0NIMl1bQ0gyXVtDSDJdW0NAQEhdKGMzW2NIXWMyW2NIXVtjSF1uMylONFtDSDJdW0NIMl1DKD1bQ0hdQzQ9TyljNWMoRilbY0hdW2NIXWMoQ2wpYzVG

> <s_epik_cmdline>
J2VwaWtfcHl0aG9uJywgJy1waHQnLCAnMC41JywgJy1waCcsICc3LjUnLCAnLW50JywgJy1tYScsICcyMDAnLCAnLWltYWUnLCAnPGluZmlsZS5tYWU+JywgJy1vbWFlJywgJzxvdXRmaWxlLm1hZT4n

> <r_lp_tautomer_probability>
1

> <r_epik_Ionization_Penalty>
  0.0001

> <r_epik_Ionization_Penalty_Charging>
  0.0000

> <r_epik_Ionization_Penalty_Neutral>
  0.0001

> <r_epik_State_Penalty>
 -0.0000

> <r_epik_Charging_Adjusted_Penalty>
0

> <i_epik_Tot_Q>
0

> <i_epik_Tot_abs_Q>
0

> <s_epik_Chemistry_Notes>
This compound has an ester and may undergo hydrolysis at high or low pH.

> <s_lp_Force_Field>
OPLS3e

> <r_lp_Energy>
113.712548

> <b_lp_Chiralities_Consistent>
1

> <s_lp_Variant>
sdf/inactives_sanitized.sdf:31-1

$$$$
sdf/inactives_sanitized.sdf:32
                    3D
 Schrodinger Suite 2020-1.
 65 69  0  0  1  0            999 V2000
   -9.5561    1.0040   -0.9831 C   0  0  0  0  0  0
   -8.4386    0.7349    0.0464 C   0  0  2  0  0  0
   -7.4045   -0.3066   -0.5126 C   0  0  0  0  0  0
   -6.5372   -1.1310    0.4867 C   0  0  0  0  0  0
   -5.0053   -1.1611    0.2207 C   0  0  0  0  0  0
   -4.2289    0.1809    0.4257 C   0  0  2  0  0  0
   -2.7422    0.1004    0.2934 N   0  0  0  0  0  0
   -2.0958   -1.1575   -0.1966 C   0  0  0  0  0  0
   -0.6084   -1.2726    0.2269 C   0  0  0  0  0  0
    0.0925    0.0288   -0.1022 C   0  0  0  0  0  0
   -0.6018    1.1751    0.0206 C   0  0  0  0  0  0
   -2.0094    1.2690    0.3468 C   0  0  0  0  0  0
   -2.4662    2.3649    0.6766 O   0  0  0  0  0  0
    1.5698    0.0570   -0.2415 C   0  0  0  0  0  0
    2.3490    0.5292    0.8302 C   0  0  0  0  0  0
    1.7376    0.9673    1.9608 F   0  0  0  0  0  0
    3.7477    0.5450    0.7436 C   0  0  0  0  0  0
    4.3750    0.0784   -0.4115 C   0  0  0  0  0  0
    3.6162   -0.4052   -1.4733 C   0  0  0  0  0  0
    2.2204   -0.4255   -1.3991 C   0  0  0  0  0  0
    1.4853   -0.9423   -2.5525 C   0  0  0  0  0  0
    0.9023   -1.3517   -3.4644 N   0  0  0  0  0  0
    4.5632    1.0391    1.8459 C   0  0  0  0  0  0
    5.2113    1.4314    2.7207 N   0  0  0  0  0  0
   -4.7344    0.8813    1.6920 C   0  0  0  0  0  0
   -5.6700    1.9053    1.5669 C   0  0  0  0  0  0
   -6.4017    2.2951    2.6887 C   0  0  0  0  0  0
   -6.0618    1.7533    3.9340 C   0  0  0  0  0  0
   -5.0345    0.8073    3.9960 C   0  0  0  0  0  0
   -4.3882    0.3450    2.8939 N   0  0  0  0  0  0
   -7.5727    3.1837    2.5107 C   0  0  0  0  0  0
   -7.3770    4.5684    2.4609 C   0  0  0  0  0  0
   -8.4495    5.4351    2.2540 C   0  0  0  0  0  0
   -8.2381    6.7703    2.2089 F   0  0  0  0  0  0
   -9.7366    4.9247    2.0921 C   0  0  0  0  0  0
  -10.7794    5.7624    1.8924 F   0  0  0  0  0  0
   -9.9506    3.5483    2.1373 C   0  0  0  0  0  0
   -8.8781    2.6726    2.3342 C   0  0  0  0  0  0
   -9.1723    1.3008    2.4101 N   0  0  0  0  0  0
   -9.0665    0.3827    1.4217 C   0  0  0  0  0  0
   -9.4813   -0.7603    1.6084 O   0  0  0  0  0  0
  -10.2280    1.7967   -0.6492 H   0  0  0  0  0  0
  -10.1633    0.1153   -1.1632 H   0  0  0  0  0  0
   -9.1407    1.3188   -1.9411 H   0  0  0  0  0  0
   -7.9129    1.6793    0.1402 H   0  0  0  0  0  0
   -7.9399   -1.0308   -1.1294 H   0  0  0  0  0  0
   -6.7488    0.2139   -1.2120 H   0  0  0  0  0  0
   -6.7053   -0.8209    1.5163 H   0  0  0  0  0  0
   -6.8977   -2.1608    0.4692 H   0  0  0  0  0  0
   -4.5864   -1.9132    0.8906 H   0  0  0  0  0  0
   -4.8365   -1.5288   -0.7926 H   0  0  0  0  0  0
   -4.5300    0.7983   -0.4227 H   0  0  0  0  0  0
   -2.6730   -2.0633   -0.0252 H   0  0  0  0  0  0
   -2.0600   -1.0491   -1.2821 H   0  0  0  0  0  0
   -0.5631   -1.4443    1.3032 H   0  0  0  0  0  0
   -0.1267   -2.1230   -0.2562 H   0  0  0  0  0  0
   -0.0752    2.1111   -0.1067 H   0  0  0  0  0  0
    5.4530    0.0825   -0.4968 H   0  0  0  0  0  0
    4.1293   -0.7638   -2.3554 H   0  0  0  0  0  0
   -5.9105    2.2982    0.5906 H   0  0  0  0  0  0
   -6.5961    2.0395    4.8283 H   0  0  0  0  0  0
   -4.7496    0.3669    4.9401 H   0  0  0  0  0  0
   -6.3834    4.9772    2.5783 H   0  0  0  0  0  0
  -10.9540    3.1653    2.0163 H   0  0  0  0  0  0
   -9.6097    0.9980    3.2681 H   0  0  0  0  0  0
  1  2  1  0  0  0
  1 42  1  0  0  0
  1 43  1  0  0  0
  1 44  1  0  0  0
  2  3  1  0  0  0
  2 40  1  0  0  0
  2 45  1  0  0  0
  3  4  1  0  0  0
  3 46  1  0  0  0
  3 47  1  0  0  0
  4  5  1  0  0  0
  4 48  1  0  0  0
  4 49  1  0  0  0
  5  6  1  0  0  0
  5 50  1  0  0  0
  5 51  1  0  0  0
  6  7  1  0  0  0
  6 25  1  0  0  0
  6 52  1  0  0  0
  7  8  1  0  0  0
  7 12  1  0  0  0
  8  9  1  0  0  0
  8 53  1  0  0  0
  8 54  1  0  0  0
  9 10  1  0  0  0
  9 55  1  0  0  0
  9 56  1  0  0  0
 10 11  2  0  0  0
 10 14  1  0  0  0
 11 12  1  0  0  0
 11 57  1  0  0  0
 12 13  2  0  0  0
 14 15  2  0  0  0
 14 20  1  0  0  0
 15 16  1  0  0  0
 15 17  1  0  0  0
 17 18  2  0  0  0
 17 23  1  0  0  0
 18 19  1  0  0  0
 18 58  1  0  0  0
 19 20  2  0  0  0
 19 59  1  0  0  0
 20 21  1  0  0  0
 21 22  3  0  0  0
 23 24  3  0  0  0
 25 26  1  0  0  0
 25 30  2  0  0  0
 26 27  2  0  0  0
 26 60  1  0  0  0
 27 28  1  0  0  0
 27 31  1  0  0  0
 28 29  2  0  0  0
 28 61  1  0  0  0
 29 30  1  0  0  0
 29 62  1  0  0  0
 31 32  2  0  0  0
 31 38  1  0  0  0
 32 33  1  0  0  0
 32 63  1  0  0  0
 33 34  1  0  0  0
 33 35  2  0  0  0
 35 36  1  0  0  0
 35 37  1  0  0  0
 37 38  2  0  0  0
 37 64  1  0  0  0
 38 39  1  0  0  0
 39 40  1  0  0  0
 39 65  1  0  0  0
 40 41  2  0  0  0
M  END
> <chembl_id>
CHEMBL4110679

> <chembl_pref_name>
None

> <i_m_ct_stereo_status>
1

> <s_m_source_file>
sdf/inactives_sanitized.sdf

> <i_m_source_file_index>
32

> <i_lp_mmshare_version>
49012

> <i_f3d_flags>
0

> <s_epik_input>
bjFbY0hdW2NIXWMoW2NIXWMxMiljM2MoW2NIXWMoRiljKEYpW2NIXTMpW05IXUMoPU8pW0NASF0oW0NIM10pW0NIMl1bQ0gyXVtDSDJdW0NAQEhdMk40W0NIMl1bQ0gyXUMoPVtDSF1DND1PKWM1YyhGKWMoQyNOKVtjSF1bY0hdYzVDI04=

> <s_epik_cmdline>
J2VwaWtfcHl0aG9uJywgJy1waHQnLCAnMC41JywgJy1waCcsICc3LjUnLCAnLW50JywgJy1tYScsICcyMDAnLCAnLWltYWUnLCAnPGluZmlsZS5tYWU+JywgJy1vbWFlJywgJzxvdXRmaWxlLm1hZT4n

> <r_lp_tautomer_probability>
1

> <r_epik_Ionization_Penalty>
  0.0001

> <r_epik_Ionization_Penalty_Charging>
  0.0000

> <r_epik_Ionization_Penalty_Neutral>
  0.0001

> <r_epik_State_Penalty>
 -0.0000

> <r_epik_Charging_Adjusted_Penalty>
0

> <i_epik_Tot_Q>
0

> <i_epik_Tot_abs_Q>
0

> <s_lp_Force_Field>
OPLS3e

> <r_lp_Energy>
96.094449

> <b_lp_Chiralities_Consistent>
1

> <s_lp_Variant>
sdf/inactives_sanitized.sdf:32-1

$$$$
sdf/inactives_sanitized.sdf:33
                    3D
 Schrodinger Suite 2020-1.
 77 78  0  0  1  0            999 V2000
   -4.8888    3.4171   -3.0413 C   0  0  0  0  0  0
   -5.4192    4.7033   -3.0896 C   0  0  0  0  0  0
   -6.2789    5.1681   -2.0806 C   0  0  0  0  0  0
   -6.5981    4.2978   -1.0256 C   0  0  0  0  0  0
   -6.0707    3.0110   -0.9767 C   0  0  0  0  0  0
   -5.2076    2.5699   -1.9804 C   0  0  0  0  0  0
   -6.8259    6.5271   -2.1255 C   0  0  0  0  0  0
   -7.0937    7.0766   -3.3038 N   0  0  0  0  0  0
   -7.0395    7.1751   -0.9866 N   0  3  0  0  0  0
   -4.6042    1.1693   -1.9098 C   0  0  0  0  0  0
   -3.8380    0.9060   -0.6922 N   0  0  0  0  0  0
   -2.6886    1.5246   -0.3739 C   0  0  0  0  0  0
   -2.0994    1.1856    1.0073 C   0  0  1  0  0  0
   -2.1195    2.3466   -1.0934 O   0  0  0  0  0  0
   -0.6595    0.9377    0.9297 N   0  0  0  0  0  0
   -0.0936   -0.1190    0.3206 C   0  0  0  0  0  0
    1.4549   -0.1460    0.3129 C   0  0  1  0  0  0
   -0.7312   -1.0397   -0.1973 O   0  0  0  0  0  0
    1.8569   -1.3119    1.1441 N   0  0  1  0  0  0
    1.7346   -1.2118    2.9067 S   0  0  0  0  0  0
    3.5154   -1.4821    3.4990 C   0  0  0  0  0  0
    1.3140    0.1460    3.2696 O   0  0  0  0  0  0
    0.9431   -2.3662    3.3442 O   0  0  0  0  0  0
    4.5243   -0.5175    2.8647 C   0  0  0  0  0  0
    5.2958   -1.0244    1.8106 C   0  0  0  0  0  0
    6.2164   -0.2247    1.1407 C   0  0  0  0  0  0
    6.3799    1.1028    1.5162 C   0  0  0  0  0  0
    5.6316    1.6226    2.5687 C   0  0  0  0  0  0
    4.7051    0.8312    3.2691 C   0  0  0  0  0  0
    3.9587    1.4638    4.4059 C   0  0  0  0  0  0
    3.7935    0.7970    5.4510 O   0  5  0  0  0  0
    3.5749    2.6458    4.2526 O   0  0  0  0  0  0
   -2.3548    2.3063    2.0407 C   0  0  0  0  0  0
   -3.8435    2.6718    2.2350 C   0  0  0  0  0  0
   -4.0770    3.7045    3.3406 C   0  0  0  0  0  0
   -3.2185    4.5369    3.6256 O   0  0  0  0  0  0
   -5.2671    3.6765    3.9454 N   0  0  0  0  0  0
    1.9715   -0.2758   -1.1620 C   0  0  1  0  0  0
    1.5004    0.8871   -2.0712 C   0  0  0  0  0  0
    3.5131   -0.4003   -1.2176 C   0  0  0  0  0  0
    4.0809   -0.6943   -2.6140 C   0  0  0  0  0  0
   -4.2189    3.0877   -3.8227 H   0  0  0  0  0  0
   -5.1403    5.3389   -3.9183 H   0  0  0  0  0  0
   -7.2613    4.6081   -0.2304 H   0  0  0  0  0  0
   -6.3251    2.3608   -0.1521 H   0  0  0  0  0  0
   -7.4685    8.0126   -3.3495 H   0  0  0  0  0  0
   -6.9221    6.5532   -4.1498 H   0  0  0  0  0  0
   -7.4110    8.1133   -1.0028 H   0  0  0  0  0  0
   -5.4209    0.4480   -1.9545 H   0  0  0  0  0  0
   -3.9812    0.9658   -2.7837 H   0  0  0  0  0  0
   -4.2356    0.2471   -0.0382 H   0  0  0  0  0  0
   -2.5720    0.2726    1.3757 H   0  0  0  0  0  0
   -0.0668    1.6385    1.3513 H   0  0  0  0  0  0
    1.8739    0.7572    0.7624 H   0  0  0  0  0  0
    1.5598   -2.2106    0.7547 H   0  0  0  0  0  0
    3.5199   -1.4424    4.5857 H   0  0  0  0  0  0
    3.7643   -2.5134    3.2467 H   0  0  0  0  0  0
    5.1732   -2.0491    1.4904 H   0  0  0  0  0  0
    6.7948   -0.6322    0.3246 H   0  0  0  0  0  0
    7.0889    1.7291    0.9956 H   0  0  0  0  0  0
    5.7895    2.6560    2.8445 H   0  0  0  0  0  0
   -1.9412    1.9921    3.0008 H   0  0  0  0  0  0
   -1.7961    3.1985    1.7513 H   0  0  0  0  0  0
   -4.2594    3.0835    1.3162 H   0  0  0  0  0  0
   -4.4125    1.7695    2.4638 H   0  0  0  0  0  0
   -5.9584    2.9876    3.6868 H   0  0  0  0  0  0
   -5.4807    4.3428    4.6736 H   0  0  0  0  0  0
    1.5656   -1.1955   -1.5887 H   0  0  0  0  0  0
    1.8699    1.8448   -1.7040 H   0  0  0  0  0  0
    0.4140    0.9533   -2.1286 H   0  0  0  0  0  0
    1.8524    0.7680   -3.0954 H   0  0  0  0  0  0
    3.9649    0.5131   -0.8289 H   0  0  0  0  0  0
    3.8416   -1.2018   -0.5580 H   0  0  0  0  0  0
    5.0337   -1.2190   -2.5406 H   0  0  0  0  0  0
    4.2556    0.2273   -3.1695 H   0  0  0  0  0  0
    3.4059   -1.3183   -3.2001 H   0  0  0  0  0  0
   -6.8176    6.7293   -0.1083 H   0  0  0  0  0  0
  1  6  2  0  0  0
  1  2  1  0  0  0
  1 42  1  0  0  0
  2  3  2  0  0  0
  2 43  1  0  0  0
  3  7  1  0  0  0
  3  4  1  0  0  0
  4  5  2  0  0  0
  4 44  1  0  0  0
  5  6  1  0  0  0
  5 45  1  0  0  0
  6 10  1  0  0  0
  7  8  1  0  0  0
  7  9  2  0  0  0
  8 46  1  0  0  0
  8 47  1  0  0  0
  9 48  1  0  0  0
  9 77  1  0  0  0
 10 11  1  0  0  0
 10 49  1  0  0  0
 10 50  1  0  0  0
 11 12  1  0  0  0
 11 51  1  0  0  0
 12 13  1  0  0  0
 12 14  2  0  0  0
 13 15  1  0  0  0
 13 33  1  0  0  0
 13 52  1  0  0  0
 15 16  1  0  0  0
 15 53  1  0  0  0
 16 17  1  0  0  0
 16 18  2  0  0  0
 17 38  1  0  0  0
 17 19  1  0  0  0
 17 54  1  0  0  0
 19 20  1  0  0  0
 19 55  1  0  0  0
 20 21  1  0  0  0
 20 22  2  0  0  0
 20 23  2  0  0  0
 21 24  1  0  0  0
 21 56  1  0  0  0
 21 57  1  0  0  0
 24 25  2  0  0  0
 24 29  1  0  0  0
 25 26  1  0  0  0
 25 58  1  0  0  0
 26 27  2  0  0  0
 26 59  1  0  0  0
 27 28  1  0  0  0
 27 60  1  0  0  0
 28 29  2  0  0  0
 28 61  1  0  0  0
 29 30  1  0  0  0
 30 31  1  0  0  0
 30 32  2  0  0  0
 33 34  1  0  0  0
 33 62  1  0  0  0
 33 63  1  0  0  0
 34 35  1  0  0  0
 34 64  1  0  0  0
 34 65  1  0  0  0
 35 36  2  0  0  0
 35 37  1  0  0  0
 37 66  1  0  0  0
 37 67  1  0  0  0
 38 39  1  0  0  0
 38 40  1  0  0  0
 38 68  1  0  0  0
 39 69  1  0  0  0
 39 70  1  0  0  0
 39 71  1  0  0  0
 40 41  1  0  0  0
 40 72  1  0  0  0
 40 73  1  0  0  0
 41 74  1  0  0  0
 41 75  1  0  0  0
 41 76  1  0  0  0
M  CHG  2   9   1  31  -1
M  END
> <chembl_id>
CHEMBL505986

> <chembl_pref_name>
None

> <i_m_ct_stereo_status>
1

> <s_m_source_file>
sdf/inactives_sanitized.sdf

> <i_m_source_file_index>
33

> <i_lp_mmshare_version>
49012

> <i_f3d_flags>
0

> <s_epik_input>
W0hdXE49QyhbTkgyXSlcYzFbY0hdW2NIXWMoW2NIXVtjSF0xKVtDSDJdW05IXUMoPU8pW0NASF0oW0NIMl1bQ0gyXUMoPU8pW05IMl0pW05IXUMoPU8pW0NASF0oW0NAQEhdKFtDSDNdKVtDSDJdW0NIM10pW05IXVMoPU8pKD1PKVtDSDJdYzJbY0hdW2NIXVtjSF1bY0hdYzJDKD1PKVtPSF0=

> <s_epik_cmdline>
J2VwaWtfcHl0aG9uJywgJy1waHQnLCAnMC41JywgJy1waCcsICc3LjUnLCAnLW50JywgJy1tYScsICcyMDAnLCAnLWltYWUnLCAnPGluZmlsZS5tYWU+JywgJy1vbWFlJywgJzxvdXRmaWxlLm1hZT4n

> <r_lp_tautomer_probability>
1

> <r_epik_Ionization_Penalty>
  0.0008

> <r_epik_Ionization_Penalty_Charging>
  0.0006

> <r_epik_Ionization_Penalty_Neutral>
  0.0002

> <r_epik_State_Penalty>
 -0.0000

> <r_epik_Charging_Adjusted_Penalty>
0.000569967868436314

> <i_epik_Tot_Q>
0

> <i_epik_Tot_abs_Q>
2

> <s_epik_Chemistry_Notes>
This compound has an imine and may undergo hydrolysis.

> <s_lp_Force_Field>
OPLS3e

> <r_lp_Energy>
20.771868

> <b_lp_Chiralities_Consistent>
1

> <s_lp_Variant>
sdf/inactives_sanitized.sdf:33-1

$$$$
sdf/inactives_sanitized.sdf:34
                    3D
 Schrodinger Suite 2020-1.
 64 69  0  0  1  0            999 V2000
   -0.1468   -0.0741    0.0457 C   0  0  0  0  0  0
    5.2254   -1.3821    6.9274 N   0  0  0  0  0  0
    5.7670   -0.4679    7.8116 C   0  0  0  0  0  0
   -0.9820    1.1019    0.0285 C   0  0  0  0  0  0
    6.3070   -0.9865    8.8814 N   0  0  0  0  0  0
    1.9587   -0.8386    1.2399 C   0  0  0  0  0  0
    1.3796   -0.1073    0.0094 C   0  0  1  0  0  0
   -1.0276   -1.1444    0.0610 C   0  0  0  0  0  0
   -2.3229   -0.7008    0.0740 N   0  0  0  0  0  0
    5.4469   -2.6253    7.5090 C   0  0  0  0  0  0
   -0.7183    2.4809   -0.0107 C   0  0  0  0  0  0
   -1.4923    4.8642   -0.0658 C   0  0  0  0  0  0
   -1.7687    3.4159   -0.0199 C   0  0  0  0  0  0
    2.6778   -0.0805    2.0970 N   0  0  0  0  0  0
   -2.3407    0.6750    0.0534 C   0  0  0  0  0  0
    6.1221   -2.3313    8.7262 C   0  0  0  0  0  0
    4.5514   -1.0666    5.7247 C   0  0  0  0  0  0
   -2.4979    5.7316   -0.1053 N   0  3  0  0  0  0
    1.9115   -0.7102   -1.3172 C   0  0  0  0  0  0
    1.7670   -2.0493    1.3731 O   0  0  0  0  0  0
    1.7688    2.0128   -3.9784 N   0  0  0  0  0  0
   -3.0867    2.9326    0.0145 C   0  0  0  0  0  0
   -3.4052    1.5763    0.0501 C   0  0  0  0  0  0
    5.0218   -0.0212    4.9225 C   0  0  0  0  0  0
    3.4468   -1.8179    5.3096 C   0  0  0  0  0  0
    3.2799   -0.4677    3.3073 C   0  0  0  0  0  0
   -0.2370    5.2994   -0.0690 N   0  0  0  0  0  0
    1.4808    0.0767   -2.5494 C   0  0  0  0  0  0
    4.3806    0.2823    3.7249 C   0  0  0  0  0  0
    2.8071   -1.5161    4.1107 C   0  0  0  0  0  0
    5.1617   -3.9457    7.1301 C   0  0  0  0  0  0
    2.1311    1.2633   -2.9058 C   0  0  0  0  0  0
    0.7296    1.5749   -4.7346 C   0  0  0  0  0  0
    6.5055   -3.3704    9.5864 C   0  0  0  0  0  0
    0.4119   -0.3543   -3.3438 C   0  0  0  0  0  0
    5.5556   -4.9566    8.0100 C   0  0  0  0  0  0
    0.0275    0.4016   -4.4528 C   0  0  0  0  0  0
    6.2095   -4.6798    9.2099 C   0  0  0  0  0  0
    5.7065    0.5890    7.5955 H   0  0  0  0  0  0
    1.7453    0.9210    0.0456 H   0  0  0  0  0  0
   -0.8308   -2.2070    0.0671 H   0  0  0  0  0  0
   -3.1133   -1.3296    0.0907 H   0  0  0  0  0  0
    0.3069    2.8166   -0.0371 H   0  0  0  0  0  0
    2.8749    0.8666    1.8095 H   0  0  0  0  0  0
   -2.3059    6.7222   -0.1364 H   0  0  0  0  0  0
    3.0029   -0.7421   -1.3065 H   0  0  0  0  0  0
    1.6000   -1.7516   -1.4241 H   0  0  0  0  0  0
   -3.9124    3.6281    0.0109 H   0  0  0  0  0  0
   -4.4338    1.2467    0.0707 H   0  0  0  0  0  0
    5.8842    0.5594    5.2173 H   0  0  0  0  0  0
    3.0571   -2.6191    5.9197 H   0  0  0  0  0  0
   -0.0479    6.2904   -0.1018 H   0  0  0  0  0  0
    0.5234    4.6362   -0.0423 H   0  0  0  0  0  0
    4.7517    1.0978    3.1204 H   0  0  0  0  0  0
    1.9377   -2.0928    3.8343 H   0  0  0  0  0  0
    4.6679   -4.1885    6.2015 H   0  0  0  0  0  0
    2.9589    1.6374   -2.3212 H   0  0  0  0  0  0
    0.4615    2.1853   -5.5844 H   0  0  0  0  0  0
    7.0169   -3.1665   10.5158 H   0  0  0  0  0  0
   -0.1206   -1.2628   -3.1021 H   0  0  0  0  0  0
    5.3505   -5.9853    7.7522 H   0  0  0  0  0  0
   -0.7950    0.0856   -5.0776 H   0  0  0  0  0  0
    6.4953   -5.4956    9.8578 H   0  0  0  0  0  0
   -3.4504    5.3973   -0.1038 H   0  0  0  0  0  0
  1  4  1  0  0  0
  1  7  1  0  0  0
  1  8  2  0  0  0
  2 17  1  0  0  0
  2  3  1  0  0  0
  2 10  1  0  0  0
  3  5  2  0  0  0
  3 39  1  0  0  0
  4 11  2  0  0  0
  4 15  1  0  0  0
  5 16  1  0  0  0
  6  7  1  0  0  0
  6 14  1  0  0  0
  6 20  2  0  0  0
  7 19  1  0  0  0
  7 40  1  0  0  0
  8  9  1  0  0  0
  8 41  1  0  0  0
  9 15  1  0  0  0
  9 42  1  0  0  0
 10 16  2  0  0  0
 10 31  1  0  0  0
 11 13  1  0  0  0
 11 43  1  0  0  0
 12 13  1  0  0  0
 12 18  2  0  0  0
 12 27  1  0  0  0
 13 22  2  0  0  0
 14 26  1  0  0  0
 14 44  1  0  0  0
 15 23  2  0  0  0
 16 34  1  0  0  0
 17 25  2  0  0  0
 17 24  1  0  0  0
 18 45  1  0  0  0
 18 64  1  0  0  0
 19 28  1  0  0  0
 19 46  1  0  0  0
 19 47  1  0  0  0
 21 32  2  0  0  0
 21 33  1  0  0  0
 22 23  1  0  0  0
 22 48  1  0  0  0
 23 49  1  0  0  0
 24 29  2  0  0  0
 24 50  1  0  0  0
 25 30  1  0  0  0
 25 51  1  0  0  0
 26 29  1  0  0  0
 26 30  2  0  0  0
 27 52  1  0  0  0
 27 53  1  0  0  0
 28 32  1  0  0  0
 28 35  2  0  0  0
 29 54  1  0  0  0
 30 55  1  0  0  0
 31 36  2  0  0  0
 31 56  1  0  0  0
 32 57  1  0  0  0
 33 37  2  0  0  0
 33 58  1  0  0  0
 34 38  2  0  0  0
 34 59  1  0  0  0
 35 37  1  0  0  0
 35 60  1  0  0  0
 36 38  1  0  0  0
 36 61  1  0  0  0
 37 62  1  0  0  0
 38 63  1  0  0  0
M  CHG  1  18   1
M  END
> <chembl_id>
CHEMBL365022

> <chembl_pref_name>
None

> <s_m_source_file>
sdf/inactives_sanitized.sdf

> <i_m_source_file_index>
34

> <i_lp_mmshare_version>
49012

> <i_m_ct_stereo_status>
1

> <i_f3d_flags>
0

> <s_epik_input>
W0hdXE49QyhbTkgyXSlcYyhbY0hdMSlbY0hdW2NIXWMoYzEyKVtuSF1bY0hdYzJbQ0BIXShbQ0gyXWMzW2NIXW5bY0hdW2NIXVtjSF0zKUMoPU8pW05IXWMoW2NIXVtjSF00KVtjSF1bY0hdYzQtbjVbY0hdbmMoYzU2KVtjSF1bY0hdW2NIXVtjSF02

> <s_epik_cmdline>
J2VwaWtfcHl0aG9uJywgJy1waHQnLCAnMC41JywgJy1waCcsICc3LjUnLCAnLW50JywgJy1tYScsICcyMDAnLCAnLWltYWUnLCAnPGluZmlsZS5tYWU+JywgJy1vbWFlJywgJzxvdXRmaWxlLm1hZT4n

> <r_epik_Ionization_Penalty>
  0.0140

> <r_epik_Ionization_Penalty_Charging>
  0.0010

> <r_epik_Ionization_Penalty_Neutral>
  0.0130

> <r_epik_State_Penalty>
  0.0078

> <r_epik_Charging_Adjusted_Penalty>
0.00877873498810205

> <i_epik_Tot_Q>
1

> <i_epik_Tot_abs_Q>
1

> <s_epik_Chemistry_Notes>
This compound has an imine and may undergo hydrolysis.

> <s_lp_Force_Field>
OPLS3e

> <r_lp_Energy>
52.827511

> <b_lp_Chiralities_Consistent>
1

> <s_lp_Variant>
sdf/inactives_sanitized.sdf:34-1

$$$$
sdf/inactives_sanitized.sdf:35
                    3D
 Schrodinger Suite 2020-1.
 79 85  0  0  1  0            999 V2000
   -0.6672   -0.4362    1.2755 C   0  0  0  0  0  0
   -4.7653    6.5570   -1.2716 N   0  0  0  0  0  0
   -4.5701    7.8097   -0.7218 C   0  0  0  0  0  0
   -1.1795   -1.7849    1.2894 C   0  0  0  0  0  0
   -5.4469    8.7105   -1.0776 N   0  0  0  0  0  0
   -0.4080    1.7406   -0.0332 C   0  0  0  0  0  0
    0.0195    0.2596    0.0986 C   0  0  1  0  0  0
   -0.8966    0.0505    2.5539 C   0  0  0  0  0  0
   -1.5195   -0.8950    3.3244 N   0  0  0  0  0  0
   -5.8981    6.6795   -2.0666 C   0  0  0  0  0  0
    2.7774   -6.4122   -1.0142 C   0  0  0  0  0  0
   -1.2350   -2.8122    0.3333 C   0  0  0  0  0  0
   -1.8195   -5.1395   -0.3309 C   0  0  0  0  0  0
   -1.7868   -4.0599    0.6588 C   0  0  0  0  0  0
   -1.7016    1.9377   -0.3745 N   0  0  0  0  0  0
   -1.7076   -2.0424    2.5882 C   0  0  0  0  0  0
    3.0397   -5.4557   -0.0935 N   0  0  0  0  0  0
   -6.2905    8.0383   -1.9171 C   0  0  0  0  0  0
   -3.9800    5.4107   -1.0165 C   0  0  0  0  0  0
   -2.8033   -6.0304   -0.2904 N   0  3  0  0  0  0
    1.5623    0.0663    0.1510 C   0  0  0  0  0  0
    0.4016    2.6403    0.1973 O   0  0  0  0  0  0
    2.0940   -6.2342   -2.0249 O   0  0  0  0  0  0
    3.3366   -7.7857   -0.7101 C   0  0  0  0  0  0
   -2.2992   -4.2560    1.9480 C   0  0  0  0  0  0
   -2.2773   -3.2695    2.9327 C   0  0  0  0  0  0
   -2.5883    5.5278   -0.9499 C   0  0  0  0  0  0
   -4.5796    4.1543   -0.8888 C   0  0  0  0  0  0
   -2.4031    3.1404   -0.5852 C   0  0  0  0  0  0
    2.6804   -4.0955   -0.1063 C   0  0  0  0  0  0
   -0.8613   -5.2077   -1.2476 N   0  0  0  0  0  0
    1.9936   -1.3932    0.0574 C   0  0  0  0  0  0
   -3.7926    3.0270   -0.6718 C   0  0  0  0  0  0
   -1.8011    4.3999   -0.7350 C   0  0  0  0  0  0
    2.3603   -3.3779   -1.2695 C   0  0  0  0  0  0
    2.6853   -3.4434    1.1288 C   0  0  0  0  0  0
    2.3407   -2.0973    1.2120 C   0  0  0  0  0  0
    2.0157   -2.0323   -1.1834 C   0  0  0  0  0  0
   -6.6082    5.7970   -2.8937 C   0  0  0  0  0  0
   -7.4186    8.5219   -2.5958 C   0  0  0  0  0  0
    2.7425   -8.9198   -1.2837 C   0  0  0  0  0  0
    4.4534   -7.9533    0.1257 C   0  0  0  0  0  0
   -7.7253    6.3109   -3.5564 C   0  0  0  0  0  0
   -8.1245    7.6391   -3.4124 C   0  0  0  0  0  0
    4.9568   -9.2255    0.3849 C   0  0  0  0  0  0
    3.2463  -10.1914   -1.0232 C   0  0  0  0  0  0
    4.3509  -10.3390   -0.1898 C   0  0  0  0  0  0
   -3.7468    7.9744   -0.0416 H   0  0  0  0  0  0
   -0.3210   -0.2059   -0.8285 H   0  0  0  0  0  0
   -0.6615    1.0131    2.9851 H   0  0  0  0  0  0
   -1.7720   -0.7303    4.2886 H   0  0  0  0  0  0
   -0.8424   -2.6407   -0.6578 H   0  0  0  0  0  0
   -2.2696    1.1071   -0.4547 H   0  0  0  0  0  0
    3.5315   -5.7543    0.7360 H   0  0  0  0  0  0
   -2.8324   -6.7781   -0.9681 H   0  0  0  0  0  0
    2.0406    0.6048   -0.6700 H   0  0  0  0  0  0
    1.9757    0.5141    1.0571 H   0  0  0  0  0  0
   -2.7201   -5.2162    2.2077 H   0  0  0  0  0  0
   -2.6743   -3.4592    3.9193 H   0  0  0  0  0  0
   -2.1076    6.4874   -1.0758 H   0  0  0  0  0  0
   -5.6528    4.0434   -0.9377 H   0  0  0  0  0  0
   -0.8639   -5.9550   -1.9264 H   0  0  0  0  0  0
   -0.1164   -4.5260   -1.2473 H   0  0  0  0  0  0
   -4.2737    2.0647   -0.5684 H   0  0  0  0  0  0
   -0.7319    4.5341   -0.7074 H   0  0  0  0  0  0
    2.3811   -3.8353   -2.2464 H   0  0  0  0  0  0
    2.9427   -3.9773    2.0327 H   0  0  0  0  0  0
    2.3277   -1.6082    2.1753 H   0  0  0  0  0  0
    1.7568   -1.4897   -2.0810 H   0  0  0  0  0  0
   -6.3129    4.7676   -3.0302 H   0  0  0  0  0  0
   -7.7341    9.5501   -2.4944 H   0  0  0  0  0  0
    1.8839   -8.8275   -1.9338 H   0  0  0  0  0  0
    4.9485   -7.1051    0.5768 H   0  0  0  0  0  0
   -8.2959    5.6607   -4.2035 H   0  0  0  0  0  0
   -8.9949    7.9914   -3.9466 H   0  0  0  0  0  0
    5.8164   -9.3477    1.0273 H   0  0  0  0  0  0
    2.7821  -11.0596   -1.4674 H   0  0  0  0  0  0
    4.7428  -11.3255    0.0104 H   0  0  0  0  0  0
   -3.5199   -5.9549    0.4165 H   0  0  0  0  0  0
  1  4  1  0  0  0
  1  7  1  0  0  0
  1  8  2  0  0  0
  2 19  1  0  0  0
  2  3  1  0  0  0
  2 10  1  0  0  0
  3  5  2  0  0  0
  3 48  1  0  0  0
  4 12  2  0  0  0
  4 16  1  0  0  0
  5 18  1  0  0  0
  6  7  1  0  0  0
  6 15  1  0  0  0
  6 22  2  0  0  0
  7 21  1  0  0  0
  7 49  1  0  0  0
  8  9  1  0  0  0
  8 50  1  0  0  0
  9 16  1  0  0  0
  9 51  1  0  0  0
 10 18  2  0  0  0
 10 39  1  0  0  0
 11 17  1  0  0  0
 11 23  2  0  0  0
 11 24  1  0  0  0
 12 14  1  0  0  0
 12 52  1  0  0  0
 13 14  1  0  0  0
 13 20  2  0  0  0
 13 31  1  0  0  0
 14 25  2  0  0  0
 15 29  1  0  0  0
 15 53  1  0  0  0
 16 26  2  0  0  0
 17 30  1  0  0  0
 17 54  1  0  0  0
 18 40  1  0  0  0
 19 27  2  0  0  0
 19 28  1  0  0  0
 20 55  1  0  0  0
 20 79  1  0  0  0
 21 32  1  0  0  0
 21 56  1  0  0  0
 21 57  1  0  0  0
 24 41  2  0  0  0
 24 42  1  0  0  0
 25 26  1  0  0  0
 25 58  1  0  0  0
 26 59  1  0  0  0
 27 34  1  0  0  0
 27 60  1  0  0  0
 28 33  2  0  0  0
 28 61  1  0  0  0
 29 33  1  0  0  0
 29 34  2  0  0  0
 30 35  2  0  0  0
 30 36  1  0  0  0
 31 62  1  0  0  0
 31 63  1  0  0  0
 32 37  1  0  0  0
 32 38  2  0  0  0
 33 64  1  0  0  0
 34 65  1  0  0  0
 35 38  1  0  0  0
 35 66  1  0  0  0
 36 37  2  0  0  0
 36 67  1  0  0  0
 37 68  1  0  0  0
 38 69  1  0  0  0
 39 43  2  0  0  0
 39 70  1  0  0  0
 40 44  2  0  0  0
 40 71  1  0  0  0
 41 46  1  0  0  0
 41 72  1  0  0  0
 42 45  2  0  0  0
 42 73  1  0  0  0
 43 44  1  0  0  0
 43 74  1  0  0  0
 44 75  1  0  0  0
 45 47  1  0  0  0
 45 76  1  0  0  0
 46 47  2  0  0  0
 46 77  1  0  0  0
 47 78  1  0  0  0
M  CHG  1  20   1
M  END
> <chembl_id>
CHEMBL363885

> <chembl_pref_name>
None

> <s_m_source_file>
sdf/inactives_sanitized.sdf

> <i_m_source_file_index>
35

> <i_lp_mmshare_version>
49012

> <i_m_ct_stereo_status>
1

> <i_f3d_flags>
0

> <s_epik_input>
W2NIXTFbY0hdW2NIXVtjSF1bY0hdYzFDKD1PKVtOSF1jMltjSF1bY0hdYyhbY0hdW2NIXTIpW0NIMl1bQ0BASF0oYzNbY0hdW25IXWMoYzM0KVtjSF1bY0hdYyhbY0hdNCkvQyg9Ti9bSF0pW05IMl0pQyg9TylbTkhdYyhbY0hdW2NIXTUpW2NIXVtjSF1jNS1uNltjSF1uYyhjNjcpW2NIXVtjSF1bY0hdW2NIXTc=

> <s_epik_cmdline>
J2VwaWtfcHl0aG9uJywgJy1waHQnLCAnMC41JywgJy1waCcsICc3LjUnLCAnLW50JywgJy1tYScsICcyMDAnLCAnLWltYWUnLCAnPGluZmlsZS5tYWU+JywgJy1vbWFlJywgJzxvdXRmaWxlLm1hZT4n

> <r_epik_Ionization_Penalty>
  0.0112

> <r_epik_Ionization_Penalty_Charging>
  0.0010

> <r_epik_Ionization_Penalty_Neutral>
  0.0102

> <r_epik_State_Penalty>
  0.0078

> <r_epik_Charging_Adjusted_Penalty>
0.00877873498810205

> <i_epik_Tot_Q>
1

> <i_epik_Tot_abs_Q>
1

> <s_epik_Chemistry_Notes>
This compound has an imine and may undergo hydrolysis.

> <s_lp_Force_Field>
OPLS3e

> <r_lp_Energy>
62.892467

> <b_lp_Chiralities_Consistent>
1

> <s_lp_Variant>
sdf/inactives_sanitized.sdf:35-1

$$$$
sdf/inactives_sanitized.sdf:36
                    3D
 Schrodinger Suite 2020-1.
 31 33  0  0  1  0            999 V2000
   -0.5889   -1.0311   -0.5982 N   0  0  0  0  0  0
    0.0532   -0.0026   -0.0590 C   0  0  0  0  0  0
   -0.5876    1.0552    0.4217 N   0  3  0  0  0  0
    1.4342   -0.0225    0.0007 C   0  0  0  0  0  0
    2.2941    1.0601   -0.1176 C   0  0  0  0  0  0
    3.6690    0.7166    0.0032 C   0  0  0  0  0  0
    4.8083    1.5362   -0.0672 C   0  0  0  0  0  0
    6.0902    0.9895    0.0797 C   0  0  0  0  0  0
    6.2264   -0.3846    0.2990 C   0  0  0  0  0  0
    5.1253   -1.2324    0.3760 C   0  0  0  0  0  0
    3.8491   -0.6758    0.2272 C   0  0  0  0  0  0
    2.3118   -1.5216    0.2838 S   0  0  0  0  0  0
    7.2949    1.8646    0.0028 C   0  0  0  0  0  0
    8.4307    1.4546   -0.7088 C   0  0  0  0  0  0
    9.5563    2.2711   -0.7816 C   0  0  0  0  0  0
    9.5536    3.5072   -0.1419 C   0  0  0  0  0  0
    8.4351    3.9316    0.5696 C   0  0  0  0  0  0
    7.3115    3.1125    0.6407 C   0  0  0  0  0  0
   -1.5970   -1.0256   -0.6495 H   0  0  0  0  0  0
   -0.0642   -1.8171   -0.9537 H   0  0  0  0  0  0
   -1.5956    1.0929    0.3867 H   0  0  0  0  0  0
    1.9550    2.0708   -0.2902 H   0  0  0  0  0  0
    4.6942    2.5958   -0.2438 H   0  0  0  0  0  0
    7.2115   -0.8117    0.4207 H   0  0  0  0  0  0
    5.2576   -2.2909    0.5480 H   0  0  0  0  0  0
    8.4443    0.5006   -1.2157 H   0  0  0  0  0  0
   10.4268    1.9474   -1.3330 H   0  0  0  0  0  0
   10.4258    4.1419   -0.1979 H   0  0  0  0  0  0
    8.4393    4.8912    1.0651 H   0  0  0  0  0  0
    6.4526    3.4515    1.2016 H   0  0  0  0  0  0
   -0.0622    1.8137    0.8314 H   0  0  0  0  0  0
  1  2  1  0  0  0
  1 19  1  0  0  0
  1 20  1  0  0  0
  2  3  2  0  0  0
  2  4  1  0  0  0
  3 21  1  0  0  0
  3 31  1  0  0  0
  4  5  2  0  0  0
  4 12  1  0  0  0
  5  6  1  0  0  0
  5 22  1  0  0  0
  6  7  2  0  0  0
  6 11  1  0  0  0
  7  8  1  0  0  0
  7 23  1  0  0  0
  8  9  2  0  0  0
  8 13  1  0  0  0
  9 10  1  0  0  0
  9 24  1  0  0  0
 10 11  2  0  0  0
 10 25  1  0  0  0
 11 12  1  0  0  0
 13 14  2  0  0  0
 13 18  1  0  0  0
 14 15  1  0  0  0
 14 26  1  0  0  0
 15 16  2  0  0  0
 15 27  1  0  0  0
 16 17  1  0  0  0
 16 28  1  0  0  0
 17 18  2  0  0  0
 17 29  1  0  0  0
 18 30  1  0  0  0
M  CHG  1   3   1
M  END
> <chembl_id>
CHEMBL1204017

> <chembl_pref_name>
None

> <s_m_source_file>
sdf/inactives_sanitized.sdf

> <i_m_source_file_index>
36

> <i_lp_mmshare_version>
49012

> <i_m_ct_stereo_status>
1

> <i_f3d_flags>
0

> <s_epik_input>
W0hdXE49QyhcW05IMl0pYyhbY0hdMSlzYyhjMTIpW2NIXVtjSF1jKFtjSF0yKS1jM1tjSF1bY0hdW2NIXVtjSF1bY0hdMw==

> <s_epik_cmdline>
J2VwaWtfcHl0aG9uJywgJy1waHQnLCAnMC41JywgJy1waCcsICc3LjUnLCAnLW50JywgJy1tYScsICcyMDAnLCAnLWltYWUnLCAnPGluZmlsZS5tYWU+JywgJy1vbWFlJywgJzxvdXRmaWxlLm1hZT4n

> <r_lp_tautomer_probability>
1

> <r_epik_Ionization_Penalty>
  0.0095

> <r_epik_Ionization_Penalty_Charging>
  0.0095

> <r_epik_Ionization_Penalty_Neutral>
  0.0000

> <r_epik_State_Penalty>
 -0.0000

> <r_epik_Charging_Adjusted_Penalty>
0.00945881282357717

> <i_epik_Tot_Q>
1

> <i_epik_Tot_abs_Q>
1

> <s_epik_Chemistry_Notes>
This compound has an imine and may undergo hydrolysis.

> <s_lp_Force_Field>
OPLS3e

> <r_lp_Energy>
17.645931

> <b_lp_Chiralities_Consistent>
1

> <s_lp_Variant>
sdf/inactives_sanitized.sdf:36-1

$$$$
sdf/inactives_sanitized.sdf:37
                    3D
 Schrodinger Suite 2020-1.
 49 52  0  0  1  0            999 V2000
   -0.0269    2.7701   -0.0628 C   0  0  0  0  0  0
   -0.7074    3.9825   -0.0607 C   0  0  0  0  0  0
   -2.0977    4.0276   -0.0305 C   0  0  0  0  0  0
   -0.7192    1.5506   -0.0338 C   0  0  0  0  0  0
   -2.1286    1.5592   -0.0008 C   0  0  0  0  0  0
   -2.8017    2.8157   -0.0006 C   0  0  0  0  0  0
   -4.5452    2.6130    0.0414 S   0  0  0  0  0  0
   -4.3803    0.8616    0.0509 C   0  0  0  0  0  0
   -3.0494    0.4723    0.0338 C   0  0  0  0  0  0
   -5.4901    0.0388    0.0933 C   0  0  0  0  0  0
   -6.5924    0.4028   -0.5496 N   0  0  0  0  0  0
   -5.4113   -1.1002    0.7695 N   0  3  0  0  0  0
   -0.1447    0.2919   -0.0281 O   0  0  0  0  0  0
    1.2795    0.1427   -0.1023 C   0  0  2  0  0  0
    1.5811   -1.3186   -0.4903 C   0  0  0  0  0  0
    1.9444    0.4776    1.2396 C   0  0  0  0  0  0
    2.6914   -1.5051   -1.2384 N   0  0  0  0  0  0
    3.2462   -2.7069   -1.7162 C   0  0  0  0  0  0
    0.8166   -2.2171   -0.1316 O   0  0  0  0  0  0
    3.2507    0.9787    1.2528 C   0  0  0  0  0  0
    3.8764    1.2703    2.4619 C   0  0  0  0  0  0
    3.1989    1.0530    3.6594 C   0  0  0  0  0  0
    1.9028    0.5429    3.6589 C   0  0  0  0  0  0
    1.2769    0.2512    2.4501 C   0  0  0  0  0  0
    4.1433   -2.5898   -2.7814 C   0  0  0  0  0  0
    4.7508   -3.7236   -3.3144 C   0  0  0  0  0  0
    4.4684   -4.9761   -2.7752 C   0  0  0  0  0  0
    3.5876   -5.1045   -1.7043 C   0  0  0  0  0  0
    2.9774   -3.9728   -1.1697 C   0  0  0  0  0  0
    1.0520    2.7953   -0.0813 H   0  0  0  0  0  0
   -0.1460    4.9051   -0.0819 H   0  0  0  0  0  0
   -2.6160    4.9757   -0.0288 H   0  0  0  0  0  0
   -2.7338   -0.5608    0.0389 H   0  0  0  0  0  0
   -7.4090   -0.1898   -0.5248 H   0  0  0  0  0  0
   -6.6076    1.2718   -1.0633 H   0  0  0  0  0  0
   -6.2110   -1.7143    0.8171 H   0  0  0  0  0  0
    1.6744    0.7926   -0.8873 H   0  0  0  0  0  0
    3.1728   -0.6722   -1.5436 H   0  0  0  0  0  0
    3.7821    1.1441    0.3266 H   0  0  0  0  0  0
    4.8834    1.6608    2.4712 H   0  0  0  0  0  0
    3.6846    1.2782    4.5975 H   0  0  0  0  0  0
    1.3867    0.3711    4.5921 H   0  0  0  0  0  0
    0.2747   -0.1523    2.4572 H   0  0  0  0  0  0
    4.3701   -1.6224   -3.2069 H   0  0  0  0  0  0
    5.4387   -3.6318   -4.1420 H   0  0  0  0  0  0
    4.9406   -5.8556   -3.1877 H   0  0  0  0  0  0
    3.3819   -6.0788   -1.2856 H   0  0  0  0  0  0
    2.3172   -4.1032   -0.3267 H   0  0  0  0  0  0
   -4.5522   -1.3436    1.2407 H   0  0  0  0  0  0
  1  2  2  0  0  0
  1  4  1  0  0  0
  1 30  1  0  0  0
  2  3  1  0  0  0
  2 31  1  0  0  0
  3  6  2  0  0  0
  3 32  1  0  0  0
  4  5  2  0  0  0
  4 13  1  0  0  0
  5  9  1  0  0  0
  5  6  1  0  0  0
  6  7  1  0  0  0
  7  8  1  0  0  0
  8  9  2  0  0  0
  8 10  1  0  0  0
  9 33  1  0  0  0
 10 11  1  0  0  0
 10 12  2  0  0  0
 11 34  1  0  0  0
 11 35  1  0  0  0
 12 36  1  0  0  0
 12 49  1  0  0  0
 13 14  1  0  0  0
 14 15  1  0  0  0
 14 16  1  0  0  0
 14 37  1  0  0  0
 15 17  1  0  0  0
 15 19  2  0  0  0
 16 20  2  0  0  0
 16 24  1  0  0  0
 17 18  1  0  0  0
 17 38  1  0  0  0
 18 25  2  0  0  0
 18 29  1  0  0  0
 20 21  1  0  0  0
 20 39  1  0  0  0
 21 22  2  0  0  0
 21 40  1  0  0  0
 22 23  1  0  0  0
 22 41  1  0  0  0
 23 24  2  0  0  0
 23 42  1  0  0  0
 24 43  1  0  0  0
 25 26  1  0  0  0
 25 44  1  0  0  0
 26 27  2  0  0  0
 26 45  1  0  0  0
 27 28  1  0  0  0
 27 46  1  0  0  0
 28 29  2  0  0  0
 28 47  1  0  0  0
 29 48  1  0  0  0
M  CHG  1  12   1
M  END
> <chembl_id>
CHEMBL603670

> <chembl_pref_name>
None

> <s_m_source_file>
sdf/inactives_sanitized.sdf

> <i_m_source_file_index>
37

> <i_lp_mmshare_version>
49012

> <i_m_ct_stereo_status>
1

> <i_f3d_flags>
0

> <s_epik_input>
W0hdXE49QyhbTkgyXSlcYyhbY0hdMSlzYyhjMTIpW2NIXVtjSF1bY0hdYzJPW0NAQEhdKGMzW2NIXVtjSF1bY0hdW2NIXVtjSF0zKUMoPU8pW05IXWM0W2NIXVtjSF1bY0hdW2NIXVtjSF00

> <s_epik_cmdline>
J2VwaWtfcHl0aG9uJywgJy1waHQnLCAnMC41JywgJy1waCcsICc3LjUnLCAnLW50JywgJy1tYScsICcyMDAnLCAnLWltYWUnLCAnPGluZmlsZS5tYWU+JywgJy1vbWFlJywgJzxvdXRmaWxlLm1hZT4n

> <r_lp_tautomer_probability>
1

> <r_epik_Ionization_Penalty>
  0.0095

> <r_epik_Ionization_Penalty_Charging>
  0.0095

> <r_epik_Ionization_Penalty_Neutral>
  0.0000

> <r_epik_State_Penalty>
 -0.0000

> <r_epik_Charging_Adjusted_Penalty>
0.00945881282357717

> <i_epik_Tot_Q>
1

> <i_epik_Tot_abs_Q>
1

> <s_epik_Chemistry_Notes>
This compound has an imine and may undergo hydrolysis.

> <s_lp_Force_Field>
OPLS3e

> <r_lp_Energy>
41.128031

> <b_lp_Chiralities_Consistent>
1

> <s_lp_Variant>
sdf/inactives_sanitized.sdf:37-1

$$$$
sdf/inactives_sanitized.sdf:38
                    3D
 Schrodinger Suite 2020-1.
 53 56  0  0  1  0            999 V2000
   -0.0433    2.8149   -0.1393 C   0  0  0  0  0  0
   -0.7757    3.9958   -0.1883 C   0  0  0  0  0  0
   -2.1666    3.9826   -0.1489 C   0  0  0  0  0  0
   -0.6824    1.5697   -0.0494 C   0  0  0  0  0  0
   -2.0904    1.5195   -0.0048 C   0  0  0  0  0  0
   -2.8174    2.7443   -0.0568 C   0  0  0  0  0  0
   -4.5500    2.4686    0.0110 S   0  0  0  0  0  0
   -4.3086    0.7282    0.1004 C   0  0  0  0  0  0
   -2.9623    0.3965    0.0880 C   0  0  0  0  0  0
   -5.3805   -0.1394    0.1923 C   0  0  0  0  0  0
   -6.5022    0.1442   -0.4572 N   0  0  0  0  0  0
   -5.2471   -1.2391    0.9229 N   0  3  0  0  0  0
   -0.0561    0.3377    0.0092 O   0  0  0  0  0  0
    1.3728    0.2440   -0.0594 C   0  0  2  0  0  0
    1.7288   -1.2182   -0.3929 C   0  0  0  0  0  0
    2.0197    0.6555    1.2699 C   0  0  0  0  0  0
    2.8221   -1.3911   -1.1687 N   0  0  0  0  0  0
    3.4007   -2.5902   -1.6234 C   0  0  0  0  0  0
    1.0142   -2.1315    0.0264 O   0  0  0  0  0  0
    3.3084    1.2002    1.2667 C   0  0  0  0  0  0
    3.9173    1.5643    2.4645 C   0  0  0  0  0  0
    3.2409    1.3764    3.6676 C   0  0  0  0  0  0
    1.9628    0.8233    3.6841 C   0  0  0  0  0  0
    1.3536    0.4587    2.4866 C   0  0  0  0  0  0
    3.2209   -3.8420   -1.0092 C   0  0  0  0  0  0
    3.8436   -4.9921   -1.5261 C   0  0  0  0  0  0
    4.6552   -4.8681   -2.6555 C   0  0  0  0  0  0
    4.8522   -3.6283   -3.2603 C   0  0  0  0  0  0
    4.2308   -2.4938   -2.7431 C   0  0  0  0  0  0
    3.7156   -6.2599   -0.9911 O   0  0  0  0  0  0
    2.8927   -6.4511    0.1548 C   0  0  0  0  0  0
    1.0333    2.8856   -0.1672 H   0  0  0  0  0  0
   -0.2549    4.9398   -0.2564 H   0  0  0  0  0  0
   -2.7256    4.9064   -0.1869 H   0  0  0  0  0  0
   -2.6019   -0.6206    0.1375 H   0  0  0  0  0  0
   -7.2903   -0.4837   -0.3996 H   0  0  0  0  0  0
   -6.5607    0.9880   -1.0087 H   0  0  0  0  0  0
   -6.0170   -1.8867    1.0034 H   0  0  0  0  0  0
    1.7434    0.8797   -0.8674 H   0  0  0  0  0  0
    3.2578   -0.5538   -1.5264 H   0  0  0  0  0  0
    3.8383    1.3442    0.3362 H   0  0  0  0  0  0
    4.9105    1.9890    2.4613 H   0  0  0  0  0  0
    3.7135    1.6586    4.5970 H   0  0  0  0  0  0
    1.4478    0.6752    4.6219 H   0  0  0  0  0  0
    0.3652    0.0231    2.5076 H   0  0  0  0  0  0
    2.6140   -3.9247   -0.1228 H   0  0  0  0  0  0
    5.1416   -5.7412   -3.0655 H   0  0  0  0  0  0
    5.4863   -3.5474   -4.1310 H   0  0  0  0  0  0
    4.3936   -1.5402   -3.2257 H   0  0  0  0  0  0
    2.8985   -7.5058    0.4297 H   0  0  0  0  0  0
    1.8579   -6.1680   -0.0433 H   0  0  0  0  0  0
    3.2617   -5.8846    1.0112 H   0  0  0  0  0  0
   -4.3763   -1.4195    1.4007 H   0  0  0  0  0  0
  1  4  2  0  0  0
  1  2  1  0  0  0
  1 32  1  0  0  0
  2  3  2  0  0  0
  2 33  1  0  0  0
  3  6  1  0  0  0
  3 34  1  0  0  0
  4  5  1  0  0  0
  4 13  1  0  0  0
  5  9  1  0  0  0
  5  6  2  0  0  0
  6  7  1  0  0  0
  7  8  1  0  0  0
  8  9  2  0  0  0
  8 10  1  0  0  0
  9 35  1  0  0  0
 10 11  1  0  0  0
 10 12  2  0  0  0
 11 36  1  0  0  0
 11 37  1  0  0  0
 12 38  1  0  0  0
 12 53  1  0  0  0
 13 14  1  0  0  0
 14 15  1  0  0  0
 14 16  1  0  0  0
 14 39  1  0  0  0
 15 17  1  0  0  0
 15 19  2  0  0  0
 16 20  2  0  0  0
 16 24  1  0  0  0
 17 18  1  0  0  0
 17 40  1  0  0  0
 18 25  2  0  0  0
 18 29  1  0  0  0
 20 21  1  0  0  0
 20 41  1  0  0  0
 21 22  2  0  0  0
 21 42  1  0  0  0
 22 23  1  0  0  0
 22 43  1  0  0  0
 23 24  2  0  0  0
 23 44  1  0  0  0
 24 45  1  0  0  0
 25 26  1  0  0  0
 25 46  1  0  0  0
 26 27  2  0  0  0
 26 30  1  0  0  0
 27 28  1  0  0  0
 27 47  1  0  0  0
 28 29  2  0  0  0
 28 48  1  0  0  0
 29 49  1  0  0  0
 30 31  1  0  0  0
 31 50  1  0  0  0
 31 51  1  0  0  0
 31 52  1  0  0  0
M  CHG  1  12   1
M  END
> <chembl_id>
CHEMBL603671

> <chembl_pref_name>
None

> <s_m_source_file>
sdf/inactives_sanitized.sdf

> <i_m_source_file_index>
38

> <i_lp_mmshare_version>
49012

> <i_m_ct_stereo_status>
1

> <i_f3d_flags>
0

> <s_epik_input>
W0hdXE49QyhbTkgyXSlcYyhbY0hdMSlzYyhjMTIpW2NIXVtjSF1bY0hdYzJPW0NAQEhdKGMzW2NIXVtjSF1bY0hdW2NIXVtjSF0zKUMoPU8pW05IXWM0W2NIXWMoT1tDSDNdKVtjSF1bY0hdW2NIXTQ=

> <s_epik_cmdline>
J2VwaWtfcHl0aG9uJywgJy1waHQnLCAnMC41JywgJy1waCcsICc3LjUnLCAnLW50JywgJy1tYScsICcyMDAnLCAnLWltYWUnLCAnPGluZmlsZS5tYWU+JywgJy1vbWFlJywgJzxvdXRmaWxlLm1hZT4n

> <r_lp_tautomer_probability>
1

> <r_epik_Ionization_Penalty>
  0.0095

> <r_epik_Ionization_Penalty_Charging>
  0.0095

> <r_epik_Ionization_Penalty_Neutral>
  0.0000

> <r_epik_State_Penalty>
 -0.0000

> <r_epik_Charging_Adjusted_Penalty>
0.00945881282357717

> <i_epik_Tot_Q>
1

> <i_epik_Tot_abs_Q>
1

> <s_epik_Chemistry_Notes>
This compound has an imine and may undergo hydrolysis.

> <s_lp_Force_Field>
OPLS3e

> <r_lp_Energy>
46.177286

> <b_lp_Chiralities_Consistent>
1

> <s_lp_Variant>
sdf/inactives_sanitized.sdf:38-1

$$$$
sdf/inactives_sanitized.sdf:39
                    3D
 Schrodinger Suite 2020-1.
 50 54  0  0  1  0            999 V2000
    0.1578    2.7144   -0.0263 C   0  0  0  0  0  0
   -0.5062    3.9306    0.0871 C   0  0  0  0  0  0
   -1.8949    3.9895    0.1461 C   0  0  0  0  0  0
   -0.5489    1.5042   -0.0774 C   0  0  0  0  0  0
   -1.9581    1.5277   -0.0318 C   0  0  0  0  0  0
   -2.6145    2.7880    0.0834 C   0  0  0  0  0  0
   -4.3597    2.6054    0.1330 S   0  0  0  0  0  0
   -4.2192    0.8574   -0.0059 C   0  0  0  0  0  0
   -2.8940    0.4540   -0.0780 C   0  0  0  0  0  0
   -5.3402    0.0486   -0.0104 C   0  0  0  0  0  0
   -6.4496    0.4787   -0.5983 N   0  0  0  0  0  0
   -5.2658   -1.1420    0.5709 N   0  3  0  0  0  0
    0.0131    0.2447   -0.1976 O   0  0  0  0  0  0
    1.4257    0.0487   -0.0522 C   0  0  2  0  0  0
    1.7303   -1.3994   -0.3946 C   0  0  0  0  0  0
    1.9255    0.4536    1.3415 C   0  0  0  0  0  0
    3.1569    1.1029    1.4747 C   0  0  0  0  0  0
    3.6194    1.4700    2.7356 C   0  0  0  0  0  0
    2.8522    1.1836    3.8625 C   0  0  0  0  0  0
    1.6274    0.5315    3.7405 C   0  0  0  0  0  0
    1.1645    0.1642    2.4801 C   0  0  0  0  0  0
    1.8838   -2.4154    0.4127 N   0  0  0  0  0  0
    2.0605   -3.4247   -0.4225 C   0  0  0  0  0  0
    2.0121   -3.1147   -1.7042 N   0  0  0  0  0  0
    1.7744   -1.7427   -1.7039 O   0  0  0  0  0  0
    2.2930   -4.8333    0.0572 C   0  0  0  0  0  0
    2.5151   -5.8724   -0.8590 C   0  0  0  0  0  0
    2.7195   -7.4495    0.9490 C   0  0  0  0  0  0
    2.5018   -6.4319    1.8732 C   0  0  0  0  0  0
    2.7275   -7.1750   -0.4155 C   0  0  0  0  0  0
    2.2898   -5.1295    1.4287 C   0  0  0  0  0  0
    1.2358    2.7284   -0.0767 H   0  0  0  0  0  0
    0.0671    4.8452    0.1279 H   0  0  0  0  0  0
   -2.4010    4.9401    0.2346 H   0  0  0  0  0  0
   -2.5932   -0.5799   -0.1638 H   0  0  0  0  0  0
   -7.2748   -0.1027   -0.6051 H   0  0  0  0  0  0
   -6.4627    1.3885   -1.0358 H   0  0  0  0  0  0
   -6.0720   -1.7494    0.5809 H   0  0  0  0  0  0
    1.9267    0.6712   -0.7968 H   0  0  0  0  0  0
    3.7560    1.3252    0.6033 H   0  0  0  0  0  0
    4.5692    1.9739    2.8393 H   0  0  0  0  0  0
    3.2117    1.4682    4.8405 H   0  0  0  0  0  0
    1.0399    0.3104    4.6196 H   0  0  0  0  0  0
    0.2161   -0.3453    2.3883 H   0  0  0  0  0  0
    2.5255   -5.6797   -1.9219 H   0  0  0  0  0  0
    2.8835   -8.4600    1.2934 H   0  0  0  0  0  0
    2.4973   -6.6515    2.9307 H   0  0  0  0  0  0
    2.8974   -7.9691   -1.1276 H   0  0  0  0  0  0
    2.1221   -4.3536    2.1615 H   0  0  0  0  0  0
   -4.4038   -1.4305    1.0098 H   0  0  0  0  0  0
  1  4  2  0  0  0
  1  2  1  0  0  0
  1 32  1  0  0  0
  2  3  2  0  0  0
  2 33  1  0  0  0
  3  6  1  0  0  0
  3 34  1  0  0  0
  4  5  1  0  0  0
  4 13  1  0  0  0
  5  9  1  0  0  0
  5  6  2  0  0  0
  6  7  1  0  0  0
  7  8  1  0  0  0
  8  9  2  0  0  0
  8 10  1  0  0  0
  9 35  1  0  0  0
 10 11  1  0  0  0
 10 12  2  0  0  0
 11 36  1  0  0  0
 11 37  1  0  0  0
 12 38  1  0  0  0
 12 50  1  0  0  0
 13 14  1  0  0  0
 14 15  1  0  0  0
 14 16  1  0  0  0
 14 39  1  0  0  0
 15 22  2  0  0  0
 15 25  1  0  0  0
 16 17  2  0  0  0
 16 21  1  0  0  0
 17 18  1  0  0  0
 17 40  1  0  0  0
 18 19  2  0  0  0
 18 41  1  0  0  0
 19 20  1  0  0  0
 19 42  1  0  0  0
 20 21  2  0  0  0
 20 43  1  0  0  0
 21 44  1  0  0  0
 22 23  1  0  0  0
 23 24  2  0  0  0
 23 26  1  0  0  0
 24 25  1  0  0  0
 26 27  2  0  0  0
 26 31  1  0  0  0
 27 30  1  0  0  0
 27 45  1  0  0  0
 28 29  1  0  0  0
 28 30  2  0  0  0
 28 46  1  0  0  0
 29 31  2  0  0  0
 29 47  1  0  0  0
 30 48  1  0  0  0
 31 49  1  0  0  0
M  CHG  1  12   1
M  END
> <chembl_id>
CHEMBL597991

> <chembl_pref_name>
None

> <i_m_ct_stereo_status>
1

> <s_m_source_file>
sdf/inactives_sanitized.sdf

> <i_m_source_file_index>
39

> <i_lp_mmshare_version>
49012

> <i_f3d_flags>
0

> <s_epik_input>
W0hdXE49QyhbTkgyXSlcYyhbY0hdMSlzYyhjMTIpW2NIXVtjSF1bY0hdYzJPW0NAQEhdKGMzW2NIXVtjSF1bY0hdW2NIXVtjSF0zKWM0bmMobm80KS1jNVtjSF1bY0hdW2NIXVtjSF1bY0hdNQ==

> <s_epik_cmdline>
J2VwaWtfcHl0aG9uJywgJy1waHQnLCAnMC41JywgJy1waCcsICc3LjUnLCAnLW50JywgJy1tYScsICcyMDAnLCAnLWltYWUnLCAnPGluZmlsZS5tYWU+JywgJy1vbWFlJywgJzxvdXRmaWxlLm1hZT4n

> <r_lp_tautomer_probability>
1

> <r_epik_Ionization_Penalty>
  0.0095

> <r_epik_Ionization_Penalty_Charging>
  0.0095

> <r_epik_Ionization_Penalty_Neutral>
  0.0000

> <r_epik_State_Penalty>
 -0.0000

> <r_epik_Charging_Adjusted_Penalty>
0.00945881282357717

> <i_epik_Tot_Q>
1

> <i_epik_Tot_abs_Q>
1

> <s_epik_Chemistry_Notes>
This compound has an imine and may undergo hydrolysis.

> <s_lp_Force_Field>
OPLS3e

> <r_lp_Energy>
42.083005

> <b_lp_Chiralities_Consistent>
1

> <s_lp_Variant>
sdf/inactives_sanitized.sdf:39-1

$$$$
sdf/inactives_sanitized.sdf:40
                    3D
 Schrodinger Suite 2020-1.
 72 77  0  0  1  0            999 V2000
    6.1084    1.2371    7.0266 C   0  0  0  0  0  0
   -0.6822   -0.8697   -0.8860 C   0  0  0  0  0  0
    6.0491    2.1565    8.1107 N   0  0  0  0  0  0
    5.7441    1.3302    5.8029 N   0  0  0  0  0  0
   -1.3953   -0.3798   -2.0399 C   0  0  0  0  0  0
    6.6906    0.1007    7.6381 N   0  0  0  0  0  0
   -0.6893   -2.2499   -1.0134 C   0  0  0  0  0  0
   -0.0689   -0.0258    0.2249 C   0  0  2  0  0  0
    5.1699    2.4752    5.2459 C   0  0  0  0  0  0
   -1.3484   -2.6238   -2.1544 N   0  0  0  0  0  0
   -1.7359    0.9032   -2.4989 C   0  0  0  0  0  0
    1.4376    0.1983   -0.0209 C   0  0  0  0  0  0
   -2.8265    2.4045   -4.1631 C   0  0  0  0  0  0
    6.5456    1.6051    9.2872 C   0  0  0  0  0  0
   -2.4640    1.0655   -3.6876 C   0  0  0  0  0  0
   -1.8019   -1.5049   -2.8153 C   0  0  0  0  0  0
    6.9498    0.3094    8.9895 C   0  0  0  0  0  0
    1.8324    1.4707   -0.2102 N   0  0  0  0  0  0
    4.7390    2.3356    3.7966 C   0  0  0  0  0  0
   -2.9804    2.6144   -5.4653 N   0  3  0  0  0  0
   -0.3513   -0.6270    1.6320 C   0  0  0  0  0  0
    4.9909    3.5403    5.8513 O   0  0  0  0  0  0
    2.2170   -0.7566    0.0082 O   0  0  0  0  0  0
   -2.8385   -0.0761   -4.4097 C   0  0  0  0  0  0
   -2.5221   -1.3715   -4.0036 C   0  0  0  0  0  0
    4.0134    3.3725    3.1913 C   0  0  0  0  0  0
    5.0202    1.1829    3.0420 C   0  0  0  0  0  0
   -2.9955    3.3844   -3.2826 N   0  0  0  0  0  0
    3.2234    1.9204   -0.2374 C   0  0  0  0  0  0
    3.7887    2.0763    1.1684 C   0  0  0  0  0  0
    0.1879    0.2016    2.7975 C   0  0  0  0  0  0
    3.5436    3.2455    1.8880 C   0  0  0  0  0  0
    4.5527    1.0573    1.7369 C   0  0  0  0  0  0
    6.6779    2.1089   10.5816 C   0  0  0  0  0  0
    7.4940   -0.5071    9.9815 C   0  0  0  0  0  0
    1.3218   -0.2263    3.4951 C   0  0  0  0  0  0
   -0.4444    1.3951    3.1566 C   0  0  0  0  0  0
    7.6283   -0.0085   11.2800 C   0  0  0  0  0  0
    7.2216    1.2953   11.5790 C   0  0  0  0  0  0
    0.0582    2.1602    4.2061 C   0  0  0  0  0  0
    1.8210    0.5366    4.5469 C   0  0  0  0  0  0
    1.1890    1.7279    4.8959 C   0  0  0  0  0  0
    6.8816   -0.7591    7.1446 H   0  0  0  0  0  0
   -0.2662   -3.0106   -0.3732 H   0  0  0  0  0  0
   -0.5643    0.9471    0.2111 H   0  0  0  0  0  0
   -1.4594   -3.5904   -2.4260 H   0  0  0  0  0  0
   -1.4299    1.7699   -1.9325 H   0  0  0  0  0  0
    1.1328    2.1975   -0.1827 H   0  0  0  0  0  0
   -2.8439    1.8533   -6.1142 H   0  0  0  0  0  0
   -1.4278   -0.7367    1.7740 H   0  0  0  0  0  0
    0.0486   -1.6405    1.7028 H   0  0  0  0  0  0
   -3.4059    0.0379   -5.3216 H   0  0  0  0  0  0
   -2.8288   -2.2281   -4.5862 H   0  0  0  0  0  0
    3.7815    4.2790    3.7326 H   0  0  0  0  0  0
    5.5857    0.3609    3.4564 H   0  0  0  0  0  0
   -3.2444    4.3096   -3.6005 H   0  0  0  0  0  0
   -2.8779    3.1983   -2.2975 H   0  0  0  0  0  0
    3.8461    1.2382   -0.8205 H   0  0  0  0  0  0
    3.2682    2.8821   -0.7501 H   0  0  0  0  0  0
    2.9647    4.0457    1.4501 H   0  0  0  0  0  0
    4.7588    0.1538    1.1814 H   0  0  0  0  0  0
    6.3655    3.1144   10.8228 H   0  0  0  0  0  0
    7.8102   -1.5160    9.7613 H   0  0  0  0  0  0
    1.8221   -1.1430    3.2185 H   0  0  0  0  0  0
   -1.3191    1.7328    2.6199 H   0  0  0  0  0  0
    8.0470   -0.6326   12.0558 H   0  0  0  0  0  0
    7.3273    1.6746   12.5848 H   0  0  0  0  0  0
   -0.4251    3.0852    4.4837 H   0  0  0  0  0  0
    2.7005    0.2118    5.0832 H   0  0  0  0  0  0
    1.5829    2.3231    5.7066 H   0  0  0  0  0  0
   -3.2308    3.5326   -5.8017 H   0  0  0  0  0  0
    5.6788    3.0922    8.0250 H   0  0  0  0  0  0
  1  3  1  0  0  0
  1  4  2  0  0  0
  1  6  1  0  0  0
  2  8  1  0  0  0
  2  5  1  0  0  0
  2  7  2  0  0  0
  3 14  1  0  0  0
  3 72  1  0  0  0
  4  9  1  0  0  0
  5 11  2  0  0  0
  5 16  1  0  0  0
  6 17  1  0  0  0
  6 43  1  0  0  0
  7 10  1  0  0  0
  7 44  1  0  0  0
  8 12  1  0  0  0
  8 21  1  0  0  0
  8 45  1  0  0  0
  9 19  1  0  0  0
  9 22  2  0  0  0
 10 16  1  0  0  0
 10 46  1  0  0  0
 11 15  1  0  0  0
 11 47  1  0  0  0
 12 18  1  0  0  0
 12 23  2  0  0  0
 13 15  1  0  0  0
 13 20  2  0  0  0
 13 28  1  0  0  0
 14 34  2  0  0  0
 14 17  1  0  0  0
 15 24  2  0  0  0
 16 25  2  0  0  0
 17 35  2  0  0  0
 18 29  1  0  0  0
 18 48  1  0  0  0
 19 26  2  0  0  0
 19 27  1  0  0  0
 20 49  1  0  0  0
 20 71  1  0  0  0
 21 31  1  0  0  0
 21 50  1  0  0  0
 21 51  1  0  0  0
 24 25  1  0  0  0
 24 52  1  0  0  0
 25 53  1  0  0  0
 26 32  1  0  0  0
 26 54  1  0  0  0
 27 33  2  0  0  0
 27 55  1  0  0  0
 28 56  1  0  0  0
 28 57  1  0  0  0
 29 30  1  0  0  0
 29 58  1  0  0  0
 29 59  1  0  0  0
 30 33  1  0  0  0
 30 32  2  0  0  0
 31 36  2  0  0  0
 31 37  1  0  0  0
 32 60  1  0  0  0
 33 61  1  0  0  0
 34 39  1  0  0  0
 34 62  1  0  0  0
 35 38  1  0  0  0
 35 63  1  0  0  0
 36 41  1  0  0  0
 36 64  1  0  0  0
 37 40  2  0  0  0
 37 65  1  0  0  0
 38 39  2  0  0  0
 38 66  1  0  0  0
 39 67  1  0  0  0
 40 42  1  0  0  0
 40 68  1  0  0  0
 41 42  2  0  0  0
 41 69  1  0  0  0
 42 70  1  0  0  0
M  CHG  1  20   1
M  END
> <chembl_id>
CHEMBL359573

> <chembl_pref_name>
None

> <s_m_source_file>
sdf/inactives_sanitized.sdf

> <i_m_source_file_index>
40

> <i_lp_mmshare_version>
49012

> <i_m_ct_stereo_status>
1

> <i_f3d_flags>
0

> <s_epik_input>
W2NIXTFbY0hdW2NIXVtjSF1jKGMxMilbbkhdYyhuMilbTkhdQyg9TyljM1tjSF1bY0hdYyhbY0hdW2NIXTMpW0NIMl1bTkhdQyg9TylbQ0BIXShbQ0gyXWM0W2NIXVtjSF1bY0hdW2NIXVtjSF00KWM1W2NIXVtuSF1jKGM1NilbY0hdW2NIXWMoW2NIXTYpL0MoPU4vW0hdKVtOSDJd

> <s_epik_cmdline>
J2VwaWtfcHl0aG9uJywgJy1waHQnLCAnMC41JywgJy1waCcsICc3LjUnLCAnLW50JywgJy1tYScsICcyMDAnLCAnLWltYWUnLCAnPGluZmlsZS5tYWU+JywgJy1vbWFlJywgJzxvdXRmaWxlLm1hZT4n

> <r_lp_tautomer_probability>
1

> <r_epik_Ionization_Penalty>
  0.0032

> <r_epik_Ionization_Penalty_Charging>
  0.0032

> <r_epik_Ionization_Penalty_Neutral>
  0.0000

> <r_epik_State_Penalty>
 -0.0000

> <r_epik_Charging_Adjusted_Penalty>
0.00319690624938136

> <i_epik_Tot_Q>
1

> <i_epik_Tot_abs_Q>
1

> <s_epik_Chemistry_Notes>
This compound has an imine and may undergo hydrolysis.

> <s_lp_Force_Field>
OPLS3e

> <r_lp_Energy>
41.394151

> <b_lp_Chiralities_Consistent>
1

> <s_lp_Variant>
sdf/inactives_sanitized.sdf:40-1

$$$$
sdf/inactives_sanitized.sdf:41
                    3D
 Schrodinger Suite 2020-1.
 78 83  0  0  1  0            999 V2000
    5.1758    6.3118   -5.1877 C   0  0  0  0  0  0
   -0.5207   -0.6078   -1.1323 C   0  0  0  0  0  0
    6.3804   10.8110   -9.5612 S   0  0  0  0  0  0
    5.9869    5.8786   -6.2732 N   0  0  0  0  0  0
    4.7296    5.7024   -4.1540 N   0  0  0  0  0  0
   -1.1671    0.1559   -2.1705 C   0  0  0  0  0  0
    4.9449    7.6688   -5.5187 N   0  0  0  0  0  0
   -0.1809   -1.8133   -1.7257 C   0  0  0  0  0  0
   -0.2789   -0.1625    0.3074 C   0  0  2  0  0  0
    4.9892    4.3601   -3.8663 C   0  0  0  0  0  0
    5.5603    8.0273   -6.7144 C   0  0  0  0  0  0
   -0.5793   -1.8336   -3.0356 N   0  0  0  0  0  0
   -1.7340    1.4398   -2.2229 C   0  0  0  0  0  0
    6.2176    6.8995   -7.1891 C   0  0  0  0  0  0
    6.3149    9.2815   -8.6328 C   0  0  0  0  0  0
    1.1671    0.3394    0.4868 C   0  0  0  0  0  0
    5.6046    9.2253   -7.4275 C   0  0  0  0  0  0
   -2.9096    3.2516   -3.4643 C   0  0  0  0  0  0
   -2.3147    1.9137   -3.4091 C   0  0  0  0  0  0
   -1.1936   -0.6433   -3.3510 C   0  0  0  0  0  0
    1.3194    1.6159    0.8851 N   0  0  0  0  0  0
    4.3486    3.8414   -2.5901 C   0  0  0  0  0  0
    6.6680   10.4685  -10.9587 O   0  0  0  0  0  0
    5.1822   11.5855   -9.2187 O   0  0  0  0  0  0
   -3.9369    3.4739   -4.2764 N   0  3  0  0  0  0
   -0.6222   -1.2654    1.3451 C   0  0  0  0  0  0
    5.6877    3.6128   -4.5635 O   0  0  0  0  0  0
    2.1148   -0.4194    0.2722 O   0  0  0  0  0  0
    6.9339    6.9482   -8.3847 C   0  0  0  0  0  0
    6.9818    8.1437   -9.1055 C   0  0  0  0  0  0
   -2.3158    1.0849   -4.5390 C   0  0  0  0  0  0
   -1.7635   -0.1948   -4.5439 C   0  0  0  0  0  0
    3.4643    4.6251   -1.8281 C   0  0  0  0  0  0
    4.6422    2.5425   -2.1477 C   0  0  0  0  0  0
   -2.4087    4.2158   -2.7008 N   0  0  0  0  0  0
    2.6007    2.2981    1.0630 C   0  0  0  0  0  0
    7.8858   11.6876   -8.8394 C   0  0  0  0  0  0
    3.1895    2.8265   -0.2396 C   0  0  0  0  0  0
   -2.0870   -1.6902    1.3198 C   0  0  0  0  0  0
    4.0759    2.0424   -0.9786 C   0  0  0  0  0  0
    2.8937    4.1226   -0.6620 C   0  0  0  0  0  0
   -3.0582   -0.8687    1.8995 C   0  0  0  0  0  0
   -2.4598   -2.8928    0.7121 C   0  0  0  0  0  0
   -3.8000   -3.2689    0.6784 C   0  0  0  0  0  0
   -4.3981   -1.2458    1.8667 C   0  0  0  0  0  0
   -4.7631   -2.4433    1.2550 C   0  0  0  0  0  0
    6.3429    4.9372   -6.3590 H   0  0  0  0  0  0
    0.3217   -2.6753   -1.3112 H   0  0  0  0  0  0
   -0.9475    0.6736    0.5226 H   0  0  0  0  0  0
   -0.4228   -2.6278   -3.6397 H   0  0  0  0  0  0
   -1.7313    2.0607   -1.3397 H   0  0  0  0  0  0
    5.0946   10.1027   -7.0572 H   0  0  0  0  0  0
    0.4936    2.1829    1.0085 H   0  0  0  0  0  0
   -4.2997    2.7202   -4.8418 H   0  0  0  0  0  0
    0.0179   -2.1400    1.2112 H   0  0  0  0  0  0
   -0.4005   -0.9131    2.3547 H   0  0  0  0  0  0
    7.4490    6.0767   -8.7612 H   0  0  0  0  0  0
    7.5370    8.1806  -10.0314 H   0  0  0  0  0  0
   -2.7528    1.4464   -5.4582 H   0  0  0  0  0  0
   -1.7796   -0.8045   -5.4355 H   0  0  0  0  0  0
    3.2054    5.6317   -2.1226 H   0  0  0  0  0  0
    5.3203    1.9072   -2.7002 H   0  0  0  0  0  0
   -2.8097    5.1417   -2.7305 H   0  0  0  0  0  0
   -1.6208    4.0198   -2.1008 H   0  0  0  0  0  0
    2.4493    3.1309    1.7510 H   0  0  0  0  0  0
    3.3247    1.6412    1.5507 H   0  0  0  0  0  0
    8.0142   12.6419   -9.3495 H   0  0  0  0  0  0
    8.7661   11.0636   -8.9911 H   0  0  0  0  0  0
    7.7235   11.8537   -7.7749 H   0  0  0  0  0  0
    4.3254    1.0434   -0.6515 H   0  0  0  0  0  0
    2.2218    4.7442   -0.0882 H   0  0  0  0  0  0
   -2.7763    0.0615    2.3714 H   0  0  0  0  0  0
   -1.7155   -3.5333    0.2619 H   0  0  0  0  0  0
   -4.0917   -4.1960    0.2071 H   0  0  0  0  0  0
   -5.1511   -0.6126    2.3123 H   0  0  0  0  0  0
   -5.8029   -2.7347    1.2286 H   0  0  0  0  0  0
   -4.3535    4.3921   -4.3226 H   0  0  0  0  0  0
    4.3937    8.2940   -4.9491 H   0  0  0  0  0  0
  1  4  1  0  0  0
  1  5  2  0  0  0
  1  7  1  0  0  0
  2  9  1  0  0  0
  2  6  1  0  0  0
  2  8  2  0  0  0
  3 15  1  0  0  0
  3 23  2  0  0  0
  3 24  2  0  0  0
  3 37  1  0  0  0
  4 14  1  0  0  0
  4 47  1  0  0  0
  5 10  1  0  0  0
  6 13  2  0  0  0
  6 20  1  0  0  0
  7 11  1  0  0  0
  7 78  1  0  0  0
  8 12  1  0  0  0
  8 48  1  0  0  0
  9 16  1  0  0  0
  9 26  1  0  0  0
  9 49  1  0  0  0
 10 22  1  0  0  0
 10 27  2  0  0  0
 11 17  2  0  0  0
 11 14  1  0  0  0
 12 20  1  0  0  0
 12 50  1  0  0  0
 13 19  1  0  0  0
 13 51  1  0  0  0
 14 29  2  0  0  0
 15 17  1  0  0  0
 15 30  2  0  0  0
 16 21  1  0  0  0
 16 28  2  0  0  0
 17 52  1  0  0  0
 18 19  1  0  0  0
 18 25  2  0  0  0
 18 35  1  0  0  0
 19 31  2  0  0  0
 20 32  2  0  0  0
 21 36  1  0  0  0
 21 53  1  0  0  0
 22 33  2  0  0  0
 22 34  1  0  0  0
 25 54  1  0  0  0
 25 77  1  0  0  0
 26 39  1  0  0  0
 26 55  1  0  0  0
 26 56  1  0  0  0
 29 30  1  0  0  0
 29 57  1  0  0  0
 30 58  1  0  0  0
 31 32  1  0  0  0
 31 59  1  0  0  0
 32 60  1  0  0  0
 33 41  1  0  0  0
 33 61  1  0  0  0
 34 40  2  0  0  0
 34 62  1  0  0  0
 35 63  1  0  0  0
 35 64  1  0  0  0
 36 38  1  0  0  0
 36 65  1  0  0  0
 36 66  1  0  0  0
 37 67  1  0  0  0
 37 68  1  0  0  0
 37 69  1  0  0  0
 38 40  1  0  0  0
 38 41  2  0  0  0
 39 42  2  0  0  0
 39 43  1  0  0  0
 40 70  1  0  0  0
 41 71  1  0  0  0
 42 45  1  0  0  0
 42 72  1  0  0  0
 43 44  2  0  0  0
 43 73  1  0  0  0
 44 46  1  0  0  0
 44 74  1  0  0  0
 45 46  2  0  0  0
 45 75  1  0  0  0
 46 76  1  0  0  0
M  CHG  1  25   1
M  END
> <chembl_id>
CHEMBL363266

> <chembl_pref_name>
None

> <s_m_source_file>
sdf/inactives_sanitized.sdf

> <i_m_source_file_index>
41

> <i_lp_mmshare_version>
49012

> <i_m_ct_stereo_status>
1

> <i_f3d_flags>
0

> <s_epik_input>
Tz1TKD1PKShbQ0gzXSljKFtjSF0xKVtjSF1bY0hdYyhjMTIpW25IXWMobjIpW05IXUMoPU8pYzNbY0hdW2NIXWMoW2NIXVtjSF0zKVtDSDJdW05IXUMoPU8pW0NASF0oW0NIMl1jNFtjSF1bY0hdW2NIXVtjSF1bY0hdNCljNVtjSF1bbkhdYyhjNTYpW2NIXVtjSF1jKFtjSF02KS9DKD1OL1tIXSlbTkgyXQ==

> <s_epik_cmdline>
J2VwaWtfcHl0aG9uJywgJy1waHQnLCAnMC41JywgJy1waCcsICc3LjUnLCAnLW50JywgJy1tYScsICcyMDAnLCAnLWltYWUnLCAnPGluZmlsZS5tYWU+JywgJy1vbWFlJywgJzxvdXRmaWxlLm1hZT4n

> <r_lp_tautomer_probability>
1

> <r_epik_Ionization_Penalty>
  0.0159

> <r_epik_Ionization_Penalty_Charging>
  0.0159

> <r_epik_Ionization_Penalty_Neutral>
  0.0000

> <r_epik_State_Penalty>
 -0.0000

> <r_epik_Charging_Adjusted_Penalty>
0.015851907821987

> <i_epik_Tot_Q>
1

> <i_epik_Tot_abs_Q>
1

> <s_epik_Chemistry_Notes>
This compound has an imine and may undergo hydrolysis.

> <s_lp_Force_Field>
OPLS3e

> <r_lp_Energy>
37.148025

> <b_lp_Chiralities_Consistent>
1

> <s_lp_Variant>
sdf/inactives_sanitized.sdf:41-1

$$$$
sdf/inactives_sanitized.sdf:42
                    3D
 Schrodinger Suite 2020-1.
 58 61  0  0  1  0            999 V2000
    0.2005    0.1418   -0.4965 C   0  0  0  0  0  0
   -0.6022    1.1926   -0.0564 N   0  0  0  0  0  0
   -1.8995    0.9459   -0.3377 N   0  0  0  0  0  0
   -1.9792   -0.2812   -0.7977 C   0  0  0  0  0  0
   -0.7020   -0.8262   -0.9246 C   0  0  0  0  0  0
    1.6425    0.1087   -0.6023 C   0  0  0  0  0  0
    7.0913   -4.2226    2.2721 S   0  0  0  0  0  0
   -3.3244   -0.8869   -1.1531 C   0  0  0  0  0  0
    8.0331   -3.8953    0.7643 C   0  0  0  0  0  0
    2.1586   -1.1195   -0.3740 N   0  0  0  0  0  0
   -0.2398    2.5074    0.3596 C   0  0  0  0  0  0
    7.5140   -3.1250   -0.3020 C   0  0  0  0  0  0
    6.1289   -2.5826   -0.3203 C   0  0  0  0  0  0
    3.5021   -1.5474   -0.3663 C   0  0  0  0  0  0
    3.7229   -2.9285   -0.2769 C   0  0  0  0  0  0
    5.0220   -3.4360   -0.2594 C   0  0  0  0  0  0
    6.2898   -3.0302    2.5706 O   0  0  0  0  0  0
    6.4422   -5.5241    2.0819 O   0  0  0  0  0  0
    2.2844    1.1203   -0.8859 O   0  0  0  0  0  0
    0.8672    2.7031    1.1983 C   0  0  0  0  0  0
    5.9067   -1.2055   -0.4184 C   0  0  0  0  0  0
    4.6120   -0.6883   -0.4379 C   0  0  0  0  0  0
   -3.2125   -2.1825   -1.4478 F   0  0  0  0  0  0
   -4.1873   -0.7805   -0.1420 F   0  0  0  0  0  0
   -3.8588   -0.2782   -2.2116 F   0  0  0  0  0  0
    2.6813   -3.7927   -0.2088 F   0  0  0  0  0  0
    8.3676   -4.3916    3.6571 C   0  0  0  0  0  0
    1.2446    3.9875    1.6008 C   0  0  0  0  0  0
    3.7513    4.3597    1.7220 N   0  3  0  0  0  0
   -0.9857    3.6280   -0.0443 C   0  0  0  0  0  0
    9.3221   -4.4344    0.6626 C   0  0  0  0  0  0
    8.3330   -2.8751   -1.4119 C   0  0  0  0  0  0
   -0.6204    4.9088    0.3680 C   0  0  0  0  0  0
    2.4484    4.1789    2.5053 C   0  0  0  0  0  0
    0.4919    5.0894    1.1877 C   0  0  0  0  0  0
   10.1135   -4.1838   -0.4551 C   0  0  0  0  0  0
    9.6221   -3.3959   -1.4900 C   0  0  0  0  0  0
   -0.4640   -1.7992   -1.3309 H   0  0  0  0  0  0
    1.4921   -1.8554   -0.1896 H   0  0  0  0  0  0
    5.1690   -4.5045   -0.1934 H   0  0  0  0  0  0
    1.4385    1.8561    1.5500 H   0  0  0  0  0  0
    6.7450   -0.5258   -0.4700 H   0  0  0  0  0  0
    4.5085    0.3826   -0.4974 H   0  0  0  0  0  0
    7.8391   -4.4543    4.6080 H   0  0  0  0  0  0
    9.0161   -3.5159    3.6532 H   0  0  0  0  0  0
    8.9508   -5.2996    3.5099 H   0  0  0  0  0  0
    4.5264    4.4747    2.3593 H   0  0  0  0  0  0
    3.6932    5.1787    1.1335 H   0  0  0  0  0  0
   -1.8473    3.5192   -0.6875 H   0  0  0  0  0  0
    9.7303   -5.0498    1.4486 H   0  0  0  0  0  0
    7.9606   -2.2834   -2.2361 H   0  0  0  0  0  0
   -1.1998    5.7629    0.0491 H   0  0  0  0  0  0
    2.3721    5.0763    3.1213 H   0  0  0  0  0  0
    2.6328    3.3139    3.1445 H   0  0  0  0  0  0
    0.7655    6.0871    1.4997 H   0  0  0  0  0  0
   11.1087   -4.5991   -0.5174 H   0  0  0  0  0  0
   10.2341   -3.1980   -2.3577 H   0  0  0  0  0  0
    3.9259    3.5498    1.1440 H   0  0  0  0  0  0
  1  2  1  0  0  0
  1  5  2  0  0  0
  1  6  1  0  0  0
  2  3  1  0  0  0
  2 11  1  0  0  0
  3  4  2  0  0  0
  4  5  1  0  0  0
  4  8  1  0  0  0
  5 38  1  0  0  0
  6 10  1  0  0  0
  6 19  2  0  0  0
  7  9  1  0  0  0
  7 17  2  0  0  0
  7 18  2  0  0  0
  7 27  1  0  0  0
  8 23  1  0  0  0
  8 24  1  0  0  0
  8 25  1  0  0  0
  9 12  2  0  0  0
  9 31  1  0  0  0
 10 14  1  0  0  0
 10 39  1  0  0  0
 11 20  2  0  0  0
 11 30  1  0  0  0
 12 13  1  0  0  0
 12 32  1  0  0  0
 13 16  2  0  0  0
 13 21  1  0  0  0
 14 15  2  0  0  0
 14 22  1  0  0  0
 15 16  1  0  0  0
 15 26  1  0  0  0
 16 40  1  0  0  0
 20 28  1  0  0  0
 20 41  1  0  0  0
 21 22  2  0  0  0
 21 42  1  0  0  0
 22 43  1  0  0  0
 27 44  1  0  0  0
 27 45  1  0  0  0
 27 46  1  0  0  0
 28 34  1  0  0  0
 28 35  2  0  0  0
 29 34  1  0  0  0
 29 47  1  0  0  0
 29 48  1  0  0  0
 29 58  1  0  0  0
 30 33  2  0  0  0
 30 49  1  0  0  0
 31 36  2  0  0  0
 31 50  1  0  0  0
 32 37  2  0  0  0
 32 51  1  0  0  0
 33 35  1  0  0  0
 33 52  1  0  0  0
 34 53  1  0  0  0
 34 54  1  0  0  0
 35 55  1  0  0  0
 36 37  1  0  0  0
 36 56  1  0  0  0
 37 57  1  0  0  0
M  CHG  1  29   1
M  END
> <chembl_id>
CHEMBL559015

> <chembl_pref_name>
None

> <s_m_source_file>
sdf/inactives_sanitized.sdf

> <i_m_source_file_index>
42

> <i_lp_mmshare_version>
49012

> <i_m_ct_stereo_status>
1

> <i_f3d_flags>
0

> <s_epik_input>
W2NIXTFbY0hdW2NIXWMoW0NIMl1bTkgyXSlbY0hdYzEtbihuYyhbY0hdMilDKEYpKEYpRiljMkMoPU8pW05IXWMoW2NIXVtjSF0zKWMoRilbY0hdYzMtYyhjNFMoPU8pKD1PKVtDSDNdKVtjSF1bY0hdW2NIXVtjSF00

> <s_epik_cmdline>
J2VwaWtfcHl0aG9uJywgJy1waHQnLCAnMC41JywgJy1waCcsICc3LjUnLCAnLW50JywgJy1tYScsICcyMDAnLCAnLWltYWUnLCAnPGluZmlsZS5tYWU+JywgJy1vbWFlJywgJzxvdXRmaWxlLm1hZT4n

> <r_lp_tautomer_probability>
1

> <r_epik_Ionization_Penalty>
  0.0972

> <r_epik_Ionization_Penalty_Charging>
  0.0972

> <r_epik_Ionization_Penalty_Neutral>
  0.0000

> <r_epik_State_Penalty>
  0.0873

> <r_epik_Charging_Adjusted_Penalty>
0.184534727243865

> <i_epik_Tot_Q>
1

> <i_epik_Tot_abs_Q>
1

> <s_lp_Force_Field>
OPLS3e

> <r_lp_Energy>
54.049367

> <b_lp_Chiralities_Consistent>
1

> <s_lp_Variant>
sdf/inactives_sanitized.sdf:42-1

$$$$
sdf/inactives_sanitized.sdf:43
                    3D
 Schrodinger Suite 2020-1.
 61 64  0  0  1  0            999 V2000
   -0.0439   -0.4131    1.5209 C   0  0  2  0  0  0
    0.3025    0.3888    0.2478 C   0  0  2  0  0  0
   -0.5083   -0.3190   -0.8552 C   0  0  0  0  0  0
   -0.4953   -1.8230   -0.4809 N   0  3  1  0  0  0
   -0.2048   -1.8789    1.0449 C   0  0  0  0  0  0
   -1.3651    0.1252    2.1378 C   0  0  0  0  0  0
   -1.2235    0.9163    3.2265 N   0  0  0  0  0  0
   -2.4506   -0.1666    1.6301 O   0  0  0  0  0  0
   -2.2194    1.5551    3.9893 C   0  0  0  0  0  0
    1.8277    0.3245   -0.0353 C   0  0  0  0  0  0
    2.3445   -0.7134   -0.4587 O   0  0  0  0  0  0
    2.5276    1.4466    0.2368 N   0  0  0  0  0  0
    3.9101    1.6004    0.0664 C   0  0  0  0  0  0
    4.6585    2.0262    1.1664 C   0  0  0  0  0  0
    6.0321    2.2305    1.0447 C   0  0  0  0  0  0
    6.6748    2.0262   -0.1857 C   0  0  0  0  0  0
    5.9146    1.6266   -1.2946 C   0  0  0  0  0  0
    4.5396    1.4218   -1.1766 C   0  0  0  0  0  0
    8.0681    2.2418   -0.3172 N   0  0  0  0  0  0
    8.9659    1.5328    0.4653 C   0  0  0  0  0  0
   10.3750    1.8528    0.2229 C   0  0  0  0  0  0
   10.7874    2.7065   -0.7436 C   0  0  0  0  0  0
    9.8005    3.3837   -1.5653 C   0  0  0  0  0  0
    8.5066    3.1159   -1.3004 C   0  0  0  0  0  0
   -3.5434    1.4801    3.6632 N   0  0  0  0  0  0
   -4.4428    2.1276    4.4467 C   0  0  0  0  0  0
   -4.0699    2.8668    5.5694 C   0  0  0  0  0  0
   -2.7155    2.9421    5.8980 C   0  0  0  0  0  0
   -1.7775    2.2811    5.1018 C   0  0  0  0  0  0
   -5.2566    3.6708    6.5302 Cl  0  0  0  0  0  0
    8.6565    0.6661    1.2857 O   0  0  0  0  0  0
    3.8311    1.0668   -2.2748 F   0  0  0  0  0  0
   -1.7466   -2.6176   -0.9404 C   0  0  0  0  0  0
   -1.5517   -4.1147   -0.6238 C   0  0  0  0  0  0
   -1.9871   -2.4022   -2.4491 C   0  0  0  0  0  0
    0.6946   -0.3242    2.3220 H   0  0  0  0  0  0
    0.0657    1.4543    0.3110 H   0  0  0  0  0  0
   -0.1402   -0.2018   -1.8762 H   0  0  0  0  0  0
   -1.5534   -0.0072   -0.8186 H   0  0  0  0  0  0
   -0.9689   -2.4435    1.5822 H   0  0  0  0  0  0
    0.7596   -2.3872    1.0867 H   0  0  0  0  0  0
   -0.2818    1.0704    3.5554 H   0  0  0  0  0  0
    2.0480    2.2089    0.6929 H   0  0  0  0  0  0
    4.1827    2.1936    2.1223 H   0  0  0  0  0  0
    6.5949    2.5537    1.9089 H   0  0  0  0  0  0
    6.3880    1.4746   -2.2543 H   0  0  0  0  0  0
   11.1147    1.3635    0.8397 H   0  0  0  0  0  0
   11.8405    2.9012   -0.8867 H   0  0  0  0  0  0
   10.0893    4.0779   -2.3411 H   0  0  0  0  0  0
    7.7031    3.5883   -1.8497 H   0  0  0  0  0  0
   -5.4804    2.0450    4.1574 H   0  0  0  0  0  0
   -2.3925    3.5067    6.7605 H   0  0  0  0  0  0
   -0.7277    2.3375    5.3522 H   0  0  0  0  0  0
   -2.5721   -2.2018   -0.3592 H   0  0  0  0  0  0
   -2.4094   -4.6970   -0.9625 H   0  0  0  0  0  0
   -1.4464   -4.3075    0.4432 H   0  0  0  0  0  0
   -0.6677   -4.5157   -1.1213 H   0  0  0  0  0  0
   -2.8362   -2.9926   -2.7952 H   0  0  0  0  0  0
   -1.1194   -2.6992   -3.0397 H   0  0  0  0  0  0
   -2.2134   -1.3629   -2.6868 H   0  0  0  0  0  0
    0.3173   -2.2043   -0.9455 H   0  0  0  0  0  0
  1  5  1  0  0  0
  1  2  1  0  0  0
  1  6  1  0  0  0
  1 36  1  0  0  0
  2 10  1  0  0  0
  2  3  1  0  0  0
  2 37  1  0  0  0
  3  4  1  0  0  0
  3 38  1  0  0  0
  3 39  1  0  0  0
  4  5  1  0  0  0
  4 33  1  0  0  0
  4 61  1  0  0  0
  5 40  1  0  0  0
  5 41  1  0  0  0
  6  7  1  0  0  0
  6  8  2  0  0  0
  7  9  1  0  0  0
  7 42  1  0  0  0
  9 25  2  0  0  0
  9 29  1  0  0  0
 10 11  2  0  0  0
 10 12  1  0  0  0
 12 13  1  0  0  0
 12 43  1  0  0  0
 13 18  1  0  0  0
 13 14  2  0  0  0
 14 15  1  0  0  0
 14 44  1  0  0  0
 15 16  2  0  0  0
 15 45  1  0  0  0
 16 19  1  0  0  0
 16 17  1  0  0  0
 17 18  2  0  0  0
 17 46  1  0  0  0
 18 32  1  0  0  0
 19 20  1  0  0  0
 19 24  1  0  0  0
 20 21  1  0  0  0
 20 31  2  0  0  0
 21 22  2  0  0  0
 21 47  1  0  0  0
 22 23  1  0  0  0
 22 48  1  0  0  0
 23 24  2  0  0  0
 23 49  1  0  0  0
 24 50  1  0  0  0
 25 26  1  0  0  0
 26 27  2  0  0  0
 26 51  1  0  0  0
 27 28  1  0  0  0
 27 30  1  0  0  0
 28 29  2  0  0  0
 28 52  1  0  0  0
 29 53  1  0  0  0
 33 34  1  0  0  0
 33 35  1  0  0  0
 33 54  1  0  0  0
 34 55  1  0  0  0
 34 56  1  0  0  0
 34 57  1  0  0  0
 35 58  1  0  0  0
 35 59  1  0  0  0
 35 60  1  0  0  0
M  CHG  1   4   1
M  END
> <chembl_id>
CHEMBL1221915

> <chembl_pref_name>
None

> <i_m_ct_stereo_status>
1

> <s_m_source_file>
sdf/inactives_sanitized.sdf

> <i_m_source_file_index>
43

> <i_lp_mmshare_version>
49012

> <i_f3d_flags>
0

> <s_epik_input>
W2NIXTFbY0hdYyhDbClbY0hdbmMxW05IXUMoPU8pW0NAQEhdMltDQEhdKFtDSDJdTihbQ0gyXTIpW0NIXShbQ0gzXSlbQ0gzXSlDKD1PKVtOSF1jM1tjSF1bY0hdYyhbY0hdYzNGKS1uNGMoPU8pW2NIXVtjSF1bY0hdW2NIXTQ=

> <s_epik_cmdline>
J2VwaWtfcHl0aG9uJywgJy1waHQnLCAnMC41JywgJy1waCcsICc3LjUnLCAnLW50JywgJy1tYScsICcyMDAnLCAnLWltYWUnLCAnPGluZmlsZS5tYWU+JywgJy1vbWFlJywgJzxvdXRmaWxlLm1hZT4n

> <r_lp_tautomer_probability>
1

> <r_epik_Ionization_Penalty>
  0.0221

> <r_epik_Ionization_Penalty_Charging>
  0.0221

> <r_epik_Ionization_Penalty_Neutral>
  0.0000

> <r_epik_State_Penalty>
  0.0178

> <r_epik_Charging_Adjusted_Penalty>
0.0398786942649721

> <i_epik_Tot_Q>
1

> <i_epik_Tot_abs_Q>
1

> <s_lp_Force_Field>
OPLS3e

> <r_lp_Energy>
67.405918

> <b_lp_Chiralities_Consistent>
1

> <s_lp_Variant>
sdf/inactives_sanitized.sdf:43-1

$$$$
sdf/inactives_sanitized.sdf:44
                    3D
 Schrodinger Suite 2020-1.
 68 73  0  0  1  0            999 V2000
    0.0383   -0.1079   -0.0856 C   0  0  0  0  0  0
    3.9161   -4.6744    5.9038 N   0  0  0  0  0  0
   -0.8412    1.0210    0.0666 C   0  0  0  0  0  0
   -0.7985   -1.2113   -0.1136 C   0  0  0  0  0  0
   -2.1129   -0.8450    0.0432 N   0  0  0  0  0  0
    5.2275   -4.8818    6.2875 C   0  0  0  0  0  0
   -2.1793    0.5328    0.1401 C   0  0  0  0  0  0
    2.2565   -1.1964    0.5601 C   0  0  0  0  0  0
    1.5610   -0.0591   -0.2250 C   0  0  1  0  0  0
    5.3881   -5.7320    7.2660 N   0  0  0  0  0  0
    3.4800   -3.7755    4.9045 C   0  0  0  0  0  0
    3.1589   -5.4886    6.7374 C   0  0  0  0  0  0
    2.0831   -1.1631    1.9002 N   0  0  0  0  0  0
   -0.6293    2.4070    0.1375 C   0  0  0  0  0  0
    2.2940   -3.0495    5.0627 C   0  0  0  0  0  0
   -1.4892    4.7356    0.3067 C   0  0  0  0  0  0
   -1.7118    3.2884    0.2627 C   0  0  0  0  0  0
    2.5834   -2.0511    2.8710 C   0  0  0  0  0  0
    1.8515   -2.1889    4.0578 C   0  0  0  0  0  0
    4.1165   -6.1278    7.5726 C   0  0  0  0  0  0
   -3.2733    1.3930    0.2810 C   0  0  0  0  0  0
   -2.3267    5.5021    0.9956 N   0  3  0  0  0  0
    1.9923    0.0172   -1.7172 C   0  0  0  0  0  0
    2.8863   -2.0717   -0.0370 O   0  0  0  0  0  0
   -3.0066    2.7598    0.3370 C   0  0  0  0  0  0
    4.2114   -3.6416    3.7185 C   0  0  0  0  0  0
    3.7718   -2.7825    2.7121 C   0  0  0  0  0  0
   -0.4545    5.2520   -0.3467 N   0  0  0  0  0  0
    0.7043   -1.4933    4.2473 F   0  0  0  0  0  0
   -3.2435   -1.7595    0.0439 C   0  0  0  0  0  0
    1.5258    1.2866   -2.4224 C   0  0  0  0  0  0
    1.7867   -5.7541    6.8583 C   0  0  0  0  0  0
    3.6962   -7.0353    8.5557 C   0  0  0  0  0  0
    0.3748    1.2667   -3.2154 C   0  0  0  0  0  0
    2.2408    2.4761   -2.2558 C   0  0  0  0  0  0
    1.4021   -6.6626    7.8470 C   0  0  0  0  0  0
    2.3304   -7.2876    8.6785 C   0  0  0  0  0  0
    1.8015    3.6441   -2.8734 C   0  0  0  0  0  0
   -0.0651    2.4355   -3.8313 C   0  0  0  0  0  0
    0.6495    3.6188   -3.6566 C   0  0  0  0  0  0
   -0.5503   -2.2569   -0.2288 H   0  0  0  0  0  0
    6.0231   -4.3421    5.7941 H   0  0  0  0  0  0
    1.9257    0.8536    0.2501 H   0  0  0  0  0  0
    1.4369   -0.4726    2.2533 H   0  0  0  0  0  0
    0.3765    2.7958    0.0848 H   0  0  0  0  0  0
    1.7166   -3.1283    5.9719 H   0  0  0  0  0  0
   -4.2872    1.0242    0.3353 H   0  0  0  0  0  0
   -2.1828    6.5006    1.0299 H   0  0  0  0  0  0
    3.0806   -0.0215   -1.8006 H   0  0  0  0  0  0
    1.6391   -0.8590   -2.2648 H   0  0  0  0  0  0
   -3.8467    3.4325    0.4282 H   0  0  0  0  0  0
    5.1229   -4.2015    3.5661 H   0  0  0  0  0  0
    4.3755   -2.6894    1.8223 H   0  0  0  0  0  0
   -0.2902    6.2476   -0.3254 H   0  0  0  0  0  0
    0.1595    4.6441   -0.8694 H   0  0  0  0  0  0
   -3.8624   -1.5694    0.9213 H   0  0  0  0  0  0
   -2.8971   -2.7936    0.0717 H   0  0  0  0  0  0
   -3.8371   -1.5994   -0.8567 H   0  0  0  0  0  0
    1.0485   -5.2933    6.2193 H   0  0  0  0  0  0
    4.4076   -7.5284    9.2019 H   0  0  0  0  0  0
   -0.1848    0.3513   -3.3444 H   0  0  0  0  0  0
    3.1304    2.4970   -1.6430 H   0  0  0  0  0  0
    0.3534   -6.8910    7.9701 H   0  0  0  0  0  0
    1.9848   -7.9833    9.4292 H   0  0  0  0  0  0
    2.3509    4.5653   -2.7456 H   0  0  0  0  0  0
   -0.9567    2.4249   -4.4408 H   0  0  0  0  0  0
    0.3084    4.5251   -4.1351 H   0  0  0  0  0  0
   -3.1017    5.0812    1.4871 H   0  0  0  0  0  0
  1  3  1  0  0  0
  1  4  2  0  0  0
  1  9  1  0  0  0
  2 11  1  0  0  0
  2  6  1  0  0  0
  2 12  1  0  0  0
  3  7  2  0  0  0
  3 14  1  0  0  0
  4  5  1  0  0  0
  4 41  1  0  0  0
  5 30  1  0  0  0
  5  7  1  0  0  0
  6 10  2  0  0  0
  6 42  1  0  0  0
  7 21  1  0  0  0
  8  9  1  0  0  0
  8 13  1  0  0  0
  8 24  2  0  0  0
  9 23  1  0  0  0
  9 43  1  0  0  0
 10 20  1  0  0  0
 11 26  2  0  0  0
 11 15  1  0  0  0
 12 20  2  0  0  0
 12 32  1  0  0  0
 13 18  1  0  0  0
 13 44  1  0  0  0
 14 17  2  0  0  0
 14 45  1  0  0  0
 15 19  2  0  0  0
 15 46  1  0  0  0
 16 17  1  0  0  0
 16 22  2  0  0  0
 16 28  1  0  0  0
 17 25  1  0  0  0
 18 19  1  0  0  0
 18 27  2  0  0  0
 19 29  1  0  0  0
 20 33  1  0  0  0
 21 25  2  0  0  0
 21 47  1  0  0  0
 22 48  1  0  0  0
 22 68  1  0  0  0
 23 31  1  0  0  0
 23 49  1  0  0  0
 23 50  1  0  0  0
 25 51  1  0  0  0
 26 27  1  0  0  0
 26 52  1  0  0  0
 27 53  1  0  0  0
 28 54  1  0  0  0
 28 55  1  0  0  0
 30 56  1  0  0  0
 30 57  1  0  0  0
 30 58  1  0  0  0
 31 34  2  0  0  0
 31 35  1  0  0  0
 32 36  2  0  0  0
 32 59  1  0  0  0
 33 37  2  0  0  0
 33 60  1  0  0  0
 34 39  1  0  0  0
 34 61  1  0  0  0
 35 38  2  0  0  0
 35 62  1  0  0  0
 36 37  1  0  0  0
 36 63  1  0  0  0
 37 64  1  0  0  0
 38 40  1  0  0  0
 38 65  1  0  0  0
 39 40  2  0  0  0
 39 66  1  0  0  0
 40 67  1  0  0  0
M  CHG  1  22   1
M  END
> <chembl_id>
CHEMBL185984

> <chembl_pref_name>
None

> <s_m_source_file>
sdf/inactives_sanitized.sdf

> <i_m_source_file_index>
44

> <i_lp_mmshare_version>
49012

> <i_m_ct_stereo_status>
1

> <i_f3d_flags>
0

> <s_epik_input>
W0hdXE49QyhbTkgyXSlcYyhbY0hdMSlbY0hdW2NIXWMoYzEyKW4oW0NIM10pW2NIXWMyW0NASF0oW0NIMl1jM1tjSF1bY0hdW2NIXVtjSF1bY0hdMylDKD1PKVtOSF1jKFtjSF1bY0hdNCljKEYpW2NIXWM0LW41W2NIXW5jKGM1NilbY0hdW2NIXVtjSF1bY0hdNg==

> <s_epik_cmdline>
J2VwaWtfcHl0aG9uJywgJy1waHQnLCAnMC41JywgJy1waCcsICc3LjUnLCAnLW50JywgJy1tYScsICcyMDAnLCAnLWltYWUnLCAnPGluZmlsZS5tYWU+JywgJy1vbWFlJywgJzxvdXRmaWxlLm1hZT4n

> <r_epik_Ionization_Penalty>
  0.0112

> <r_epik_Ionization_Penalty_Charging>
  0.0010

> <r_epik_Ionization_Penalty_Neutral>
  0.0102

> <r_epik_State_Penalty>
  0.0078

> <r_epik_Charging_Adjusted_Penalty>
0.00877873498810205

> <i_epik_Tot_Q>
1

> <i_epik_Tot_abs_Q>
1

> <s_epik_Chemistry_Notes>
This compound has an imine and may undergo hydrolysis.

> <s_lp_Force_Field>
OPLS3e

> <r_lp_Energy>
51.435371

> <b_lp_Chiralities_Consistent>
1

> <s_lp_Variant>
sdf/inactives_sanitized.sdf:44-1

$$$$
sdf/inactives_sanitized.sdf:45
                    3D
 Schrodinger Suite 2020-1.
 68 73  0  0  1  0            999 V2000
    3.3274   -7.0705   -2.5203 N   0  0  0  0  0  0
   -0.9207   -0.4305    1.1656 C   0  0  0  0  0  0
    3.1124   -7.5763   -3.7883 C   0  0  0  0  0  0
   -1.2836   -1.8281    1.1843 C   0  0  0  0  0  0
    3.4418   -8.8302   -3.9450 N   0  0  0  0  0  0
   -1.4566    0.0958    2.3303 C   0  0  0  0  0  0
   -2.0945   -0.8794    3.0508 N   0  0  0  0  0  0
   -0.1118    0.2836    0.0810 C   0  0  2  0  0  0
    3.8560   -8.1285   -1.7905 C   0  0  0  0  0  0
   -1.0630   -2.9005    0.3046 C   0  0  0  0  0  0
   -1.2392   -5.3141   -0.2816 C   0  0  0  0  0  0
    1.9515   -1.2779    0.3125 C   0  0  0  0  0  0
   -1.5119   -4.1906    0.6208 C   0  0  0  0  0  0
   -2.0065   -2.0809    2.3855 C   0  0  0  0  0  0
    3.9089   -9.2061   -2.7171 C   0  0  0  0  0  0
    3.0126   -5.7623   -2.0880 C   0  0  0  0  0  0
    1.4254    0.1642    0.3137 C   0  0  0  0  0  0
    2.1414   -1.8281   -0.9059 N   0  0  0  0  0  0
   -1.1255   -6.5386    0.2192 N   0  3  0  0  0  0
   -0.5533    1.7625   -0.0711 C   0  0  0  0  0  0
    2.1540   -1.8463    1.3859 O   0  0  0  0  0  0
   -2.2160   -4.3826    1.8174 C   0  0  0  0  0  0
   -2.4850   -3.3505    2.7157 C   0  0  0  0  0  0
    3.2413   -4.6772   -2.9406 C   0  0  0  0  0  0
    2.5169   -5.5423   -0.7992 C   0  0  0  0  0  0
   -1.1029   -5.0881   -1.5833 N   0  0  0  0  0  0
    2.4543   -3.1604   -1.2304 C   0  0  0  0  0  0
   -0.0211    2.4341   -1.3322 C   0  0  0  0  0  0
    2.9535   -3.3837   -2.5147 C   0  0  0  0  0  0
    2.2320   -4.2490   -0.3725 C   0  0  0  0  0  0
    4.2990   -8.2761   -0.4677 C   0  0  0  0  0  0
    4.3991  -10.4562   -2.3133 C   0  0  0  0  0  0
    1.0602    3.3171   -1.2565 C   0  0  0  0  0  0
   -0.6162    2.1600   -2.5671 C   0  0  0  0  0  0
    4.7813   -9.5337   -0.0981 C   0  0  0  0  0  0
    4.8292  -10.6002   -0.9949 C   0  0  0  0  0  0
    1.5476    3.9195   -2.4135 C   0  0  0  0  0  0
   -0.1291    2.7635   -3.7232 C   0  0  0  0  0  0
    0.9511    3.6399   -3.6413 C   0  0  0  0  0  0
    2.6846   -6.9448   -4.5536 H   0  0  0  0  0  0
   -1.4258    1.1035    2.7192 H   0  0  0  0  0  0
   -2.5426   -0.6954    3.9372 H   0  0  0  0  0  0
   -0.3547   -0.1990   -0.8680 H   0  0  0  0  0  0
   -0.5180   -2.7336   -0.6115 H   0  0  0  0  0  0
    1.9686    0.7173   -0.4536 H   0  0  0  0  0  0
    1.6953    0.6403    1.2583 H   0  0  0  0  0  0
    2.0706   -1.2054   -1.6976 H   0  0  0  0  0  0
   -0.9415   -7.3185   -0.3947 H   0  0  0  0  0  0
   -1.6426    1.8261   -0.1065 H   0  0  0  0  0  0
   -0.2563    2.3426    0.8047 H   0  0  0  0  0  0
   -2.5777   -5.3698    2.0642 H   0  0  0  0  0  0
   -3.0338   -3.5354    3.6277 H   0  0  0  0  0  0
    3.6413   -4.8261   -3.9332 H   0  0  0  0  0  0
    2.3203   -6.3666   -0.1300 H   0  0  0  0  0  0
   -0.9122   -5.8560   -2.2101 H   0  0  0  0  0  0
   -1.1902   -4.1478   -1.9400 H   0  0  0  0  0  0
    3.1235   -2.5572   -3.1903 H   0  0  0  0  0  0
    1.8150   -4.1221    0.6143 H   0  0  0  0  0  0
    4.2847   -7.4634    0.2428 H   0  0  0  0  0  0
    4.4460  -11.2873   -3.0018 H   0  0  0  0  0  0
    1.5265    3.5320   -0.3059 H   0  0  0  0  0  0
   -1.4521    1.4785   -2.6315 H   0  0  0  0  0  0
    5.1317   -9.6844    0.9125 H   0  0  0  0  0  0
    5.2118  -11.5545   -0.6628 H   0  0  0  0  0  0
    2.3845    4.6000   -2.3595 H   0  0  0  0  0  0
   -0.5865    2.5530   -4.6788 H   0  0  0  0  0  0
    1.3297    4.1074   -4.5382 H   0  0  0  0  0  0
   -1.2248   -6.6842    1.2133 H   0  0  0  0  0  0
  1  3  1  0  0  0
  1  9  1  0  0  0
  1 16  1  0  0  0
  2  8  1  0  0  0
  2  4  1  0  0  0
  2  6  2  0  0  0
  3  5  2  0  0  0
  3 40  1  0  0  0
  4 10  2  0  0  0
  4 14  1  0  0  0
  5 15  1  0  0  0
  6  7  1  0  0  0
  6 41  1  0  0  0
  7 14  1  0  0  0
  7 42  1  0  0  0
  8 17  1  0  0  0
  8 20  1  0  0  0
  8 43  1  0  0  0
  9 15  2  0  0  0
  9 31  1  0  0  0
 10 13  1  0  0  0
 10 44  1  0  0  0
 11 13  1  0  0  0
 11 19  2  0  0  0
 11 26  1  0  0  0
 12 18  1  0  0  0
 12 17  1  0  0  0
 12 21  2  0  0  0
 13 22  2  0  0  0
 14 23  2  0  0  0
 15 32  1  0  0  0
 16 24  2  0  0  0
 16 25  1  0  0  0
 17 45  1  0  0  0
 17 46  1  0  0  0
 18 27  1  0  0  0
 18 47  1  0  0  0
 19 48  1  0  0  0
 19 68  1  0  0  0
 20 28  1  0  0  0
 20 49  1  0  0  0
 20 50  1  0  0  0
 22 23  1  0  0  0
 22 51  1  0  0  0
 23 52  1  0  0  0
 24 29  1  0  0  0
 24 53  1  0  0  0
 25 30  2  0  0  0
 25 54  1  0  0  0
 26 55  1  0  0  0
 26 56  1  0  0  0
 27 30  1  0  0  0
 27 29  2  0  0  0
 28 33  2  0  0  0
 28 34  1  0  0  0
 29 57  1  0  0  0
 30 58  1  0  0  0
 31 35  2  0  0  0
 31 59  1  0  0  0
 32 36  2  0  0  0
 32 60  1  0  0  0
 33 37  1  0  0  0
 33 61  1  0  0  0
 34 38  2  0  0  0
 34 62  1  0  0  0
 35 36  1  0  0  0
 35 63  1  0  0  0
 36 64  1  0  0  0
 37 39  2  0  0  0
 37 65  1  0  0  0
 38 39  1  0  0  0
 38 66  1  0  0  0
 39 67  1  0  0  0
M  CHG  1  19   1
M  END
> <chembl_id>
CHEMBL183417

> <chembl_pref_name>
None

> <s_m_source_file>
sdf/inactives_sanitized.sdf

> <i_m_source_file_index>
45

> <i_lp_mmshare_version>
49012

> <i_m_ct_stereo_status>
1

> <i_f3d_flags>
0

> <s_epik_input>
W2NIXTFbY0hdW2NIXVtjSF1jKGMxMiluW2NIXW4yLWMzW2NIXVtjSF1jKFtjSF1bY0hdMylbTkhdQyg9TylbQ0gyXVtDQEhdKFtDSDJdYzRbY0hdW2NIXVtjSF1bY0hdW2NIXTQpYzVbY0hdW25IXWMoYzU2KVtjSF1bY0hdYyhbY0hdNikvQyg9Ti9bSF0pW05IMl0=

> <s_epik_cmdline>
J2VwaWtfcHl0aG9uJywgJy1waHQnLCAnMC41JywgJy1waCcsICc3LjUnLCAnLW50JywgJy1tYScsICcyMDAnLCAnLWltYWUnLCAnPGluZmlsZS5tYWU+JywgJy1vbWFlJywgJzxvdXRmaWxlLm1hZT4n

> <r_epik_Ionization_Penalty>
  0.0112

> <r_epik_Ionization_Penalty_Charging>
  0.0010

> <r_epik_Ionization_Penalty_Neutral>
  0.0102

> <r_epik_State_Penalty>
  0.0078

> <r_epik_Charging_Adjusted_Penalty>
0.00877873498810205

> <i_epik_Tot_Q>
1

> <i_epik_Tot_abs_Q>
1

> <s_epik_Chemistry_Notes>
This compound has an imine and may undergo hydrolysis.

> <s_lp_Force_Field>
OPLS3e

> <r_lp_Energy>
45.232458

> <b_lp_Chiralities_Consistent>
1

> <s_lp_Variant>
sdf/inactives_sanitized.sdf:45-1

$$$$
sdf/inactives_sanitized.sdf:46
                    3D
 Schrodinger Suite 2020-1.
 69 74  0  0  1  0            999 V2000
    1.8798    0.0370   -1.4125 C   0  0  0  0  0  0
   -6.0582    2.5425   -0.2188 N   0  0  0  0  0  0
   -7.8802    3.8435    0.0159 N   0  0  0  0  0  0
    2.7497    1.0175   -2.0126 C   0  0  0  0  0  0
   -0.0110   -0.0666    0.2966 C   0  0  0  0  0  0
   -8.2780    2.6511   -0.4080 C   0  0  0  0  0  0
    1.5197   -0.0750    0.0683 C   0  0  1  0  0  0
    1.4775   -0.7816   -2.4559 C   0  0  0  0  0  0
   -7.1725    1.8167   -0.5648 C   0  0  0  0  0  0
   -6.5759    3.7696    0.1224 C   0  0  0  0  0  0
    2.0221   -0.3540   -3.6376 N   0  0  0  0  0  0
    3.4885    2.0997   -1.5072 C   0  0  0  0  0  0
    5.0331    4.0266   -1.8380 C   0  0  0  0  0  0
    4.2608    2.8975   -2.3649 C   0  0  0  0  0  0
   -0.6628    1.0081   -0.2030 N   0  0  0  0  0  0
    2.8121    0.7503   -3.4113 C   0  0  0  0  0  0
   -4.7101    2.1286   -0.2123 C   0  0  0  0  0  0
    6.1522    4.3936   -2.4516 N   0  3  0  0  0  0
    2.2488   -1.2711    0.7416 C   0  0  0  0  0  0
   -0.5506   -0.9843    0.9167 O   0  0  0  0  0  0
   -9.7233    2.3298   -0.6569 C   0  0  0  0  0  0
    4.2794    2.5947   -3.7334 C   0  0  0  0  0  0
    3.5692    1.5306   -4.2869 C   0  0  0  0  0  0
   -3.6980    3.0409   -0.5248 C   0  0  0  0  0  0
   -4.3859    0.8061    0.1057 C   0  0  0  0  0  0
   -2.0357    1.3166   -0.1818 C   0  0  0  0  0  0
    4.5994    4.6624   -0.7556 N   0  0  0  0  0  0
   -2.3678    2.6324   -0.5123 C   0  0  0  0  0  0
   -3.0547    0.3986    0.1184 C   0  0  0  0  0  0
    3.7688   -1.1588    0.6953 C   0  0  0  0  0  0
  -10.0808    1.0676   -1.1486 C   0  0  0  0  0  0
  -10.7295    3.2736   -0.4055 C   0  0  0  0  0  0
    4.4933   -1.8426   -0.2853 C   0  0  0  0  0  0
    4.4345   -0.3588    1.6281 C   0  0  0  0  0  0
  -11.4168    0.7545   -1.3850 C   0  0  0  0  0  0
  -12.0656    2.9612   -0.6415 C   0  0  0  0  0  0
    5.8210   -0.2421    1.5803 C   0  0  0  0  0  0
    5.8798   -1.7247   -0.3333 C   0  0  0  0  0  0
    6.5371   -0.9254    0.5996 C   0  0  0  0  0  0
  -12.4038    1.7025   -1.1304 C   0  0  0  0  0  0
    1.8669    0.8214    0.5852 H   0  0  0  0  0  0
    0.8309   -1.6473   -2.4520 H   0  0  0  0  0  0
   -7.0852    0.7904   -0.8899 H   0  0  0  0  0  0
   -5.9209    4.5628    0.4516 H   0  0  0  0  0  0
    1.8441   -0.8173   -4.5174 H   0  0  0  0  0  0
    3.4688    2.3108   -0.4486 H   0  0  0  0  0  0
   -0.0849    1.7210   -0.6229 H   0  0  0  0  0  0
    6.6913    5.1692   -2.0951 H   0  0  0  0  0  0
    1.9569   -1.3528    1.7908 H   0  0  0  0  0  0
    1.9362   -2.2153    0.2910 H   0  0  0  0  0  0
    4.8627    3.2101   -4.4022 H   0  0  0  0  0  0
    3.6087    1.3265   -5.3470 H   0  0  0  0  0  0
   -3.9327    4.0635   -0.7828 H   0  0  0  0  0  0
   -5.1571    0.0890    0.3478 H   0  0  0  0  0  0
    5.1248    5.4400   -0.3837 H   0  0  0  0  0  0
    3.7423    4.3671   -0.3115 H   0  0  0  0  0  0
   -1.5968    3.3493   -0.7573 H   0  0  0  0  0  0
   -2.8484   -0.6332    0.3536 H   0  0  0  0  0  0
   -9.3290    0.3198   -1.3525 H   0  0  0  0  0  0
  -10.4842    4.2547   -0.0256 H   0  0  0  0  0  0
    3.9841   -2.4593   -1.0118 H   0  0  0  0  0  0
    3.8788    0.1729    2.3872 H   0  0  0  0  0  0
  -11.6864   -0.2200   -1.7647 H   0  0  0  0  0  0
  -12.8360    3.6924   -0.4458 H   0  0  0  0  0  0
    6.3387    0.3742    2.3005 H   0  0  0  0  0  0
    6.4432   -2.2510   -1.0897 H   0  0  0  0  0  0
    7.6129   -0.8361    0.5631 H   0  0  0  0  0  0
  -13.4402    1.4598   -1.3137 H   0  0  0  0  0  0
    6.4629    3.8910   -3.2703 H   0  0  0  0  0  0
  1  4  1  0  0  0
  1  7  1  0  0  0
  1  8  2  0  0  0
  2 17  1  0  0  0
  2  9  1  0  0  0
  2 10  1  0  0  0
  3 10  2  0  0  0
  3  6  1  0  0  0
  4 12  2  0  0  0
  4 16  1  0  0  0
  5  7  1  0  0  0
  5 15  1  0  0  0
  5 20  2  0  0  0
  6  9  2  0  0  0
  6 21  1  0  0  0
  7 19  1  0  0  0
  7 41  1  0  0  0
  8 11  1  0  0  0
  8 42  1  0  0  0
  9 43  1  0  0  0
 10 44  1  0  0  0
 11 16  1  0  0  0
 11 45  1  0  0  0
 12 14  1  0  0  0
 12 46  1  0  0  0
 13 14  1  0  0  0
 13 18  2  0  0  0
 13 27  1  0  0  0
 14 22  2  0  0  0
 15 26  1  0  0  0
 15 47  1  0  0  0
 16 23  2  0  0  0
 17 25  2  0  0  0
 17 24  1  0  0  0
 18 48  1  0  0  0
 18 69  1  0  0  0
 19 30  1  0  0  0
 19 49  1  0  0  0
 19 50  1  0  0  0
 21 31  2  0  0  0
 21 32  1  0  0  0
 22 23  1  0  0  0
 22 51  1  0  0  0
 23 52  1  0  0  0
 24 28  2  0  0  0
 24 53  1  0  0  0
 25 29  1  0  0  0
 25 54  1  0  0  0
 26 28  1  0  0  0
 26 29  2  0  0  0
 27 55  1  0  0  0
 27 56  1  0  0  0
 28 57  1  0  0  0
 29 58  1  0  0  0
 30 33  2  0  0  0
 30 34  1  0  0  0
 31 35  1  0  0  0
 31 59  1  0  0  0
 32 36  2  0  0  0
 32 60  1  0  0  0
 33 38  1  0  0  0
 33 61  1  0  0  0
 34 37  2  0  0  0
 34 62  1  0  0  0
 35 40  2  0  0  0
 35 63  1  0  0  0
 36 40  1  0  0  0
 36 64  1  0  0  0
 37 39  1  0  0  0
 37 65  1  0  0  0
 38 39  2  0  0  0
 38 66  1  0  0  0
 39 67  1  0  0  0
 40 68  1  0  0  0
M  CHG  1  18   1
M  END
> <chembl_id>
CHEMBL187646

> <chembl_pref_name>
None

> <s_m_source_file>
sdf/inactives_sanitized.sdf

> <i_m_source_file_index>
46

> <i_lp_mmshare_version>
49012

> <i_m_ct_stereo_status>
1

> <i_f3d_flags>
0

> <s_epik_input>
W0hdXE49QyhbTkgyXSlcYyhbY0hdMSlbY0hdW2NIXWMoYzEyKVtuSF1bY0hdYzJbQ0BIXShbQ0gyXWMzW2NIXVtjSF1bY0hdW2NIXVtjSF0zKUMoPU8pW05IXWMoW2NIXVtjSF00KVtjSF1bY0hdYzQtbjVbY0hdYyhuW2NIXTUpLWM2W2NIXVtjSF1bY0hdW2NIXVtjSF02

> <s_epik_cmdline>
J2VwaWtfcHl0aG9uJywgJy1waHQnLCAnMC41JywgJy1waCcsICc3LjUnLCAnLW50JywgJy1tYScsICcyMDAnLCAnLWltYWUnLCAnPGluZmlsZS5tYWU+JywgJy1vbWFlJywgJzxvdXRmaWxlLm1hZT4n

> <r_lp_tautomer_probability>
1

> <r_epik_Ionization_Penalty>
  0.0030

> <r_epik_Ionization_Penalty_Charging>
  0.0030

> <r_epik_Ionization_Penalty_Neutral>
  0.0000

> <r_epik_State_Penalty>
 -0.0000

> <r_epik_Charging_Adjusted_Penalty>
0.00304065159583175

> <i_epik_Tot_Q>
1

> <i_epik_Tot_abs_Q>
1

> <s_epik_Chemistry_Notes>
This compound has an imine and may undergo hydrolysis.

> <s_lp_Force_Field>
OPLS3e

> <r_lp_Energy>
48.260951

> <b_lp_Chiralities_Consistent>
1

> <s_lp_Variant>
sdf/inactives_sanitized.sdf:46-1

$$$$
sdf/inactives_sanitized.sdf:47
                    3D
 Schrodinger Suite 2020-1.
 66 71  0  0  1  0            999 V2000
    0.3503   -0.0458    0.1494 N   0  0  0  0  0  0
    1.7638   -0.0491    0.1194 C   0  0  0  0  0  0
    2.4853   -0.2258    1.3041 C   0  0  0  0  0  0
    3.8760   -0.1977    1.2739 C   0  0  0  0  0  0
    4.5573    0.0145    0.0701 C   0  0  0  0  0  0
    3.8262    0.1646   -1.1134 C   0  0  0  0  0  0
    2.4353    0.1370   -1.0932 C   0  0  0  0  0  0
   -3.4106   -4.1077   -1.2176 C   0  0  0  0  0  0
   -3.3863   -5.4943   -1.3757 C   0  0  0  0  0  0
   -1.9164   -4.2203    0.7107 C   0  0  0  0  0  0
   -2.6846   -3.4749   -0.1968 C   0  0  0  0  0  0
   -2.7370   -2.0704   -0.0689 N   0  0  0  0  0  0
   -3.6924   -0.1694    0.1435 C   0  0  0  0  0  0
   -3.9339   -1.4551   -0.0122 N   0  0  0  0  0  0
   -1.2620   -6.7296    1.2148 C   0  0  0  0  0  0
   -1.8771   -5.6165    0.5686 C   0  0  0  0  0  0
   -2.6091   -6.2185   -0.4663 C   0  0  0  0  0  0
   -2.4362   -7.5709   -0.4275 O   0  0  0  0  0  0
   -1.5813   -7.8694    0.6434 N   0  0  0  0  0  0
   -0.4362   -6.6433    2.2976 N   0  0  0  0  0  0
   -2.3128    0.0778    0.1853 C   0  0  0  0  0  0
   -1.7073   -1.1595    0.0357 C   0  0  0  0  0  0
   -0.2522   -1.2985   -0.0106 C   0  0  0  0  0  0
   -0.3316    1.1750    0.3179 C   0  0  0  0  0  0
   -1.6213    1.2409    0.3304 N   0  0  0  0  0  0
    0.3673   -2.3534   -0.1780 O   0  0  0  0  0  0
   -4.8448    0.8038    0.2502 C   0  0  0  0  0  0
    6.0434    0.0914    0.0406 C   0  0  0  0  0  0
    6.7510   -0.8373   -0.7345 C   0  0  0  0  0  0
    8.1422   -0.8073   -0.8014 C   0  0  0  0  0  0
    8.8500    0.1608   -0.0957 C   0  0  0  0  0  0
    8.1650    1.0996    0.6719 C   0  0  0  0  0  0
    6.7670    1.0804    0.7447 C   0  0  0  0  0  0
    6.0740    2.1589    1.5793 C   0  0  0  0  0  0
    5.0627    3.0281    0.7980 N   0  3  0  0  0  0
    5.7364    3.8834   -0.2926 C   0  0  0  0  0  0
    4.1974    3.8902    1.7359 C   0  0  0  0  0  0
    0.4454    2.4799    0.4916 C   0  0  0  0  0  0
    1.9716   -0.3791    2.2425 H   0  0  0  0  0  0
    4.4252   -0.3369    2.1937 H   0  0  0  0  0  0
    4.3373    0.3217   -2.0526 H   0  0  0  0  0  0
    1.8826    0.2684   -2.0126 H   0  0  0  0  0  0
   -3.9999   -3.5183   -1.9057 H   0  0  0  0  0  0
   -3.9407   -5.9823   -2.1636 H   0  0  0  0  0  0
   -1.3664   -3.7342    1.5038 H   0  0  0  0  0  0
   -0.2014   -5.7539    2.7137 H   0  0  0  0  0  0
   -0.0197   -7.4653    2.7106 H   0  0  0  0  0  0
   -4.5020    1.8271    0.4069 H   0  0  0  0  0  0
   -5.5042    0.5592    1.0836 H   0  0  0  0  0  0
   -5.4544    0.8077   -0.6538 H   0  0  0  0  0  0
    6.2180   -1.5977   -1.2875 H   0  0  0  0  0  0
    8.6704   -1.5351   -1.3996 H   0  0  0  0  0  0
    9.9287    0.1870   -0.1462 H   0  0  0  0  0  0
    8.7303    1.8497    1.2063 H   0  0  0  0  0  0
    5.5157    1.7095    2.4007 H   0  0  0  0  0  0
    6.7796    2.8715    2.0111 H   0  0  0  0  0  0
    6.4267    4.5694    0.2006 H   0  0  0  0  0  0
    4.9448    4.4173   -0.8196 H   0  0  0  0  0  0
    6.2578    3.2030   -0.9666 H   0  0  0  0  0  0
    4.8595    4.5841    2.2560 H   0  0  0  0  0  0
    3.6963    3.2123    2.4284 H   0  0  0  0  0  0
    3.4703    4.4130    1.1133 H   0  0  0  0  0  0
   -0.2149    3.3377    0.6305 H   0  0  0  0  0  0
    1.0620    2.6880   -0.3831 H   0  0  0  0  0  0
    1.0992    2.4346    1.3630 H   0  0  0  0  0  0
    4.4371    2.3881    0.3275 H   0  0  0  0  0  0
  1 23  1  0  0  0
  1 24  1  0  0  0
  1  2  1  0  0  0
  2  3  2  0  0  0
  2  7  1  0  0  0
  3  4  1  0  0  0
  3 39  1  0  0  0
  4  5  2  0  0  0
  4 40  1  0  0  0
  5  6  1  0  0  0
  5 28  1  0  0  0
  6  7  2  0  0  0
  6 41  1  0  0  0
  7 42  1  0  0  0
  8 11  2  0  0  0
  8  9  1  0  0  0
  8 43  1  0  0  0
  9 17  2  0  0  0
  9 44  1  0  0  0
 10 16  2  0  0  0
 10 11  1  0  0  0
 10 45  1  0  0  0
 11 12  1  0  0  0
 12 22  1  0  0  0
 12 14  1  0  0  0
 13 27  1  0  0  0
 13 21  1  0  0  0
 13 14  2  0  0  0
 15 16  1  0  0  0
 15 19  2  0  0  0
 15 20  1  0  0  0
 16 17  1  0  0  0
 17 18  1  0  0  0
 18 19  1  0  0  0
 20 46  1  0  0  0
 20 47  1  0  0  0
 21 22  2  0  0  0
 21 25  1  0  0  0
 22 23  1  0  0  0
 23 26  2  0  0  0
 24 25  2  0  0  0
 24 38  1  0  0  0
 27 48  1  0  0  0
 27 49  1  0  0  0
 27 50  1  0  0  0
 28 29  2  0  0  0
 28 33  1  0  0  0
 29 30  1  0  0  0
 29 51  1  0  0  0
 30 31  2  0  0  0
 30 52  1  0  0  0
 31 32  1  0  0  0
 31 53  1  0  0  0
 32 33  2  0  0  0
 32 54  1  0  0  0
 33 34  1  0  0  0
 34 35  1  0  0  0
 34 55  1  0  0  0
 34 56  1  0  0  0
 35 36  1  0  0  0
 35 37  1  0  0  0
 35 66  1  0  0  0
 36 57  1  0  0  0
 36 58  1  0  0  0
 36 59  1  0  0  0
 37 60  1  0  0  0
 37 61  1  0  0  0
 37 62  1  0  0  0
 38 63  1  0  0  0
 38 64  1  0  0  0
 38 65  1  0  0  0
M  CHG  1  35   1
M  END
> <chembl_id>
CHEMBL213865

> <chembl_pref_name>
None

> <s_m_source_file>
sdf/inactives_sanitized.sdf

> <i_m_source_file_index>
47

> <i_lp_mmshare_version>
49012

> <i_m_ct_stereo_status>
1

> <i_f3d_flags>
0

> <s_epik_input>
W05IMl1jMW5vYyhjMTIpW2NIXVtjSF1jKFtjSF0yKS1uKG5jM1tDSDNdKWMoYzM0KWMoPU8pbihjKG40KVtDSDNdKS1jNVtjSF1bY0hdYyhbY0hdW2NIXTUpLWM2W2NIXVtjSF1bY0hdW2NIXWM2W0NIMl1OKFtDSDNdKVtDSDNd

> <s_epik_cmdline>
J2VwaWtfcHl0aG9uJywgJy1waHQnLCAnMC41JywgJy1waCcsICc3LjUnLCAnLW50JywgJy1tYScsICcyMDAnLCAnLWltYWUnLCAnPGluZmlsZS5tYWU+JywgJy1vbWFlJywgJzxvdXRmaWxlLm1hZT4n

> <r_epik_Ionization_Penalty>
  0.1405

> <r_epik_Ionization_Penalty_Charging>
  0.1404

> <r_epik_Ionization_Penalty_Neutral>
  0.0000

> <r_epik_State_Penalty>
  0.1298

> <r_epik_Charging_Adjusted_Penalty>
0.270210309865875

> <i_epik_Tot_Q>
1

> <i_epik_Tot_abs_Q>
1

> <s_lp_Force_Field>
OPLS3e

> <r_lp_Energy>
91.121127

> <b_lp_Chiralities_Consistent>
1

> <s_lp_Variant>
sdf/inactives_sanitized.sdf:47-1

$$$$
sdf/inactives_sanitized.sdf:48
                    3D
 Schrodinger Suite 2020-1.
 62 66  0  0  1  0            999 V2000
   -4.3018    1.1191    0.0541 N   0  0  0  0  0  0
   -3.1184    1.7485   -0.0703 N   0  0  0  0  0  0
   -2.0692    0.8539   -0.2303 C   0  0  0  0  0  0
   -2.6909   -0.3909   -0.2265 C   0  0  0  0  0  0
   -4.0585   -0.1690   -0.0383 C   0  0  0  0  0  0
   -5.1918   -1.1733    0.0566 C   0  0  0  0  0  0
   -4.7539   -2.4210   -0.1144 F   0  0  0  0  0  0
   -5.7857   -1.1163    1.2487 F   0  0  0  0  0  0
   -6.1196   -0.9436   -0.8727 F   0  0  0  0  0  0
   -3.0985    3.1599    0.0292 C   0  0  0  0  0  0
   -0.6793    1.1737   -0.4697 C   0  0  0  0  0  0
   -0.3525    2.2360   -0.9987 O   0  0  0  0  0  0
    0.1647    0.2071   -0.0448 N   0  0  0  0  0  0
    1.5740    0.1604   -0.0701 C   0  0  0  0  0  0
    2.3942    1.1241   -0.6815 C   0  0  0  0  0  0
    3.7822    0.9976   -0.6398 C   0  0  0  0  0  0
    4.3856   -0.0810    0.0139 C   0  0  0  0  0  0
    3.5674   -1.0486    0.6047 C   0  0  0  0  0  0
    2.1780   -0.9314    0.5684 C   0  0  0  0  0  0
    1.4254   -1.8876    1.1645 F   0  0  0  0  0  0
   -3.9671    3.9258   -0.7645 C   0  0  0  0  0  0
   -3.9786    5.3197   -0.6962 C   0  0  0  0  0  0
   -2.2169    3.7759    0.9314 C   0  0  0  0  0  0
   -2.2073    5.1776    1.0110 C   0  0  0  0  0  0
   -3.0843    5.9135    0.1998 C   0  0  0  0  0  0
   -2.9171    7.2474    0.4308 O   0  0  0  0  0  0
   -1.9179    7.3981    1.4034 N   0  0  0  0  0  0
   -1.5128    6.1922    1.7339 C   0  0  0  0  0  0
   -0.5393    5.9604    2.6614 N   0  0  0  0  0  0
    5.8655   -0.2163    0.0609 C   0  0  0  0  0  0
    6.4564   -1.3011   -0.6006 C   0  0  0  0  0  0
    7.8381   -1.4803   -0.5985 C   0  0  0  0  0  0
    8.6537   -0.5744    0.0725 C   0  0  0  0  0  0
    8.0849    0.5048    0.7441 C   0  0  0  0  0  0
    6.6972    0.6912    0.7539 C   0  0  0  0  0  0
    6.1475    1.8809    1.5413 C   0  0  0  0  0  0
    6.1458    1.6782    3.0728 N   0  3  0  0  0  0
    5.8085    2.9837    3.8185 C   0  0  0  0  0  0
    5.2168    0.5317    3.5204 C   0  0  0  0  0  0
   -2.2134   -1.3522   -0.3531 H   0  0  0  0  0  0
   -0.2665   -0.6001    0.3820 H   0  0  0  0  0  0
    1.9921    1.9781   -1.2015 H   0  0  0  0  0  0
    4.3936    1.7486   -1.1193 H   0  0  0  0  0  0
    4.0124   -1.8971    1.1049 H   0  0  0  0  0  0
   -4.6431    3.4364   -1.4513 H   0  0  0  0  0  0
   -4.6450    5.9095   -1.3079 H   0  0  0  0  0  0
   -1.5543    3.1876    1.5498 H   0  0  0  0  0  0
   -0.2485    5.0240    2.9010 H   0  0  0  0  0  0
   -0.0795    6.7194    3.1432 H   0  0  0  0  0  0
    5.8392   -2.0117   -1.1317 H   0  0  0  0  0  0
    8.2756   -2.3196   -1.1189 H   0  0  0  0  0  0
    9.7254   -0.7101    0.0751 H   0  0  0  0  0  0
    8.7296    1.1953    1.2685 H   0  0  0  0  0  0
    6.7686    2.7623    1.3709 H   0  0  0  0  0  0
    5.1220    2.1495    1.2925 H   0  0  0  0  0  0
    4.7940    3.2744    3.5405 H   0  0  0  0  0  0
    6.5412    3.7318    3.5128 H   0  0  0  0  0  0
    5.8899    2.7771    4.8864 H   0  0  0  0  0  0
    4.2018    0.7827    3.2079 H   0  0  0  0  0  0
    5.2962    0.4530    4.6054 H   0  0  0  0  0  0
    5.5703   -0.3825    3.0428 H   0  0  0  0  0  0
    7.0867    1.4199    3.3368 H   0  0  0  0  0  0
  1  5  2  0  0  0
  1  2  1  0  0  0
  2 10  1  0  0  0
  2  3  1  0  0  0
  3 11  1  0  0  0
  3  4  2  0  0  0
  4  5  1  0  0  0
  4 40  1  0  0  0
  5  6  1  0  0  0
  6  7  1  0  0  0
  6  8  1  0  0  0
  6  9  1  0  0  0
 10 21  2  0  0  0
 10 23  1  0  0  0
 11 12  2  0  0  0
 11 13  1  0  0  0
 13 14  1  0  0  0
 13 41  1  0  0  0
 14 19  1  0  0  0
 14 15  2  0  0  0
 15 16  1  0  0  0
 15 42  1  0  0  0
 16 17  2  0  0  0
 16 43  1  0  0  0
 17 30  1  0  0  0
 17 18  1  0  0  0
 18 19  2  0  0  0
 18 44  1  0  0  0
 19 20  1  0  0  0
 21 22  1  0  0  0
 21 45  1  0  0  0
 22 25  2  0  0  0
 22 46  1  0  0  0
 23 24  2  0  0  0
 23 47  1  0  0  0
 24 25  1  0  0  0
 24 28  1  0  0  0
 25 26  1  0  0  0
 26 27  1  0  0  0
 27 28  2  0  0  0
 28 29  1  0  0  0
 29 48  1  0  0  0
 29 49  1  0  0  0
 30 31  2  0  0  0
 30 35  1  0  0  0
 31 32  1  0  0  0
 31 50  1  0  0  0
 32 33  2  0  0  0
 32 51  1  0  0  0
 33 34  1  0  0  0
 33 52  1  0  0  0
 34 35  2  0  0  0
 34 53  1  0  0  0
 35 36  1  0  0  0
 36 37  1  0  0  0
 36 54  1  0  0  0
 36 55  1  0  0  0
 37 38  1  0  0  0
 37 39  1  0  0  0
 37 62  1  0  0  0
 38 56  1  0  0  0
 38 57  1  0  0  0
 38 58  1  0  0  0
 39 59  1  0  0  0
 39 60  1  0  0  0
 39 61  1  0  0  0
M  CHG  1  37   1
M  END
> <chembl_id>
CHEMBL381949

> <chembl_pref_name>
None

> <s_m_source_file>
sdf/inactives_sanitized.sdf

> <i_m_source_file_index>
48

> <i_lp_mmshare_version>
49012

> <i_m_ct_stereo_status>
1

> <i_f3d_flags>
0

> <s_epik_input>
W05IMl1jMW5vYyhjMTIpW2NIXVtjSF1jKFtjSF0yKS1uM25jKEMoRikoRilGKVtjSF1jM0MoPU8pW05IXWM0W2NIXVtjSF1jKFtjSF1jNEYpLWM1W2NIXVtjSF1bY0hdW2NIXWM1W0NIMl1OKFtDSDNdKVtDSDNd

> <s_epik_cmdline>
J2VwaWtfcHl0aG9uJywgJy1waHQnLCAnMC41JywgJy1waCcsICc3LjUnLCAnLW50JywgJy1tYScsICcyMDAnLCAnLWltYWUnLCAnPGluZmlsZS5tYWU+JywgJy1vbWFlJywgJzxvdXRmaWxlLm1hZT4n

> <r_lp_tautomer_probability>
1

> <r_epik_Ionization_Penalty>
  0.1398

> <r_epik_Ionization_Penalty_Charging>
  0.1398

> <r_epik_Ionization_Penalty_Neutral>
  0.0000

> <r_epik_State_Penalty>
  0.1291

> <r_epik_Charging_Adjusted_Penalty>
0.268949581467327

> <i_epik_Tot_Q>
1

> <i_epik_Tot_abs_Q>
1

> <s_lp_Force_Field>
OPLS3e

> <r_lp_Energy>
64.4479

> <b_lp_Chiralities_Consistent>
1

> <s_lp_Variant>
sdf/inactives_sanitized.sdf:48-1

$$$$
sdf/inactives_sanitized.sdf:49
                    3D
 Schrodinger Suite 2020-1.
 65 70  0  0  1  0            999 V2000
   -0.1118   -0.0436    0.0480 C   0  0  0  0  0  0
   -0.8362   -1.1210    0.5712 C   0  0  0  0  0  0
   -2.2253   -1.0575    0.6282 C   0  0  0  0  0  0
   -2.9028    0.0747    0.1653 C   0  0  0  0  0  0
   -2.1715    1.1522   -0.3451 C   0  0  0  0  0  0
   -0.7825    1.0959   -0.4093 C   0  0  0  0  0  0
   -4.3861    0.1350    0.2367 C   0  0  0  0  0  0
   -5.2022    0.1282   -0.9144 C   0  0  0  0  0  0
   -6.5944    0.1851   -0.7783 C   0  0  0  0  0  0
   -7.1821    0.2534    0.4829 C   0  0  0  0  0  0
   -6.3818    0.2570    1.6216 C   0  0  0  0  0  0
   -4.9954    0.1951    1.4965 C   0  0  0  0  0  0
    1.2975   -0.0981   -0.0032 N   0  0  0  0  0  0
    4.8592   -4.3334   -3.8746 C   0  0  0  0  0  0
    3.5011   -1.8967   -3.8734 C   0  0  0  0  0  0
    4.2540   -2.2795   -2.7605 C   0  0  0  0  0  0
    4.9400   -3.4979   -2.7647 C   0  0  0  0  0  0
    4.3350   -1.4307   -1.6356 N   0  0  0  0  0  0
    5.3346   -0.3053   -0.1158 C   0  0  0  0  0  0
    5.5446   -1.1083   -1.1381 N   0  0  0  0  0  0
    3.4240   -2.7361   -4.9814 C   0  0  0  0  0  0
    4.1034   -3.9652   -4.9883 C   0  0  0  0  0  0
    4.0827   -4.8610   -6.0401 O   0  0  0  0  0  0
    3.3265   -4.5482   -7.2048 C   0  0  0  0  0  0
    6.4386    0.2400    0.6585 C   0  0  0  0  0  0
    3.9608   -0.0895    0.0794 C   0  0  0  0  0  0
    3.3266   -0.8311   -0.9110 C   0  0  0  0  0  0
    1.8655   -0.8816   -1.0112 C   0  0  0  0  0  0
    2.0041    0.6320    0.9543 C   0  0  0  0  0  0
    3.2918    0.6515    1.0096 N   0  0  0  0  0  0
    1.2135   -1.5177   -1.8439 O   0  0  0  0  0  0
   -4.6158    0.0097   -2.3191 C   0  0  0  0  0  0
   -4.1603    1.3560   -2.9171 N   0  3  0  0  0  0
   -3.4335    1.2220   -4.2628 C   0  0  0  0  0  0
   -3.4614    2.6436   -4.8154 C   0  0  0  0  0  0
   -4.7749    3.2567   -4.3253 C   0  0  0  0  0  0
   -5.2981    2.3559   -3.1992 C   0  0  0  0  0  0
    7.3166    0.6738    1.2746 N   0  0  0  0  0  0
   -0.3258   -2.0028    0.9316 H   0  0  0  0  0  0
   -2.7769   -1.8944    1.0319 H   0  0  0  0  0  0
   -2.6800    2.0416   -0.6871 H   0  0  0  0  0  0
   -0.2305    1.9355   -0.8072 H   0  0  0  0  0  0
   -7.2287    0.1729   -1.6528 H   0  0  0  0  0  0
   -8.2572    0.2976    0.5778 H   0  0  0  0  0  0
   -6.8345    0.3061    2.6012 H   0  0  0  0  0  0
   -4.3877    0.1993    2.3901 H   0  0  0  0  0  0
    5.3872   -5.2759   -3.8697 H   0  0  0  0  0  0
    2.9774   -0.9516   -3.8870 H   0  0  0  0  0  0
    5.5291   -3.8039   -1.9118 H   0  0  0  0  0  0
    2.8335   -2.4158   -5.8260 H   0  0  0  0  0  0
    3.4211   -5.3615   -7.9242 H   0  0  0  0  0  0
    3.6900   -3.6388   -7.6853 H   0  0  0  0  0  0
    2.2661   -4.4333   -6.9749 H   0  0  0  0  0  0
    1.4280    1.2034    1.6781 H   0  0  0  0  0  0
   -3.7282   -0.6252   -2.3346 H   0  0  0  0  0  0
   -5.3319   -0.4047   -3.0314 H   0  0  0  0  0  0
   -2.4423    0.8062   -4.0770 H   0  0  0  0  0  0
   -4.0138    0.5166   -4.8608 H   0  0  0  0  0  0
   -2.6098    3.2064   -4.4299 H   0  0  0  0  0  0
   -3.3918    2.6528   -5.9039 H   0  0  0  0  0  0
   -4.6237    4.2785   -3.9743 H   0  0  0  0  0  0
   -5.5054    3.3012   -5.1346 H   0  0  0  0  0  0
   -5.5317    2.8634   -2.2623 H   0  0  0  0  0  0
   -6.1577    1.7677   -3.5253 H   0  0  0  0  0  0
   -3.5182    1.7751   -2.2592 H   0  0  0  0  0  0
  1  6  2  0  0  0
  1 13  1  0  0  0
  1  2  1  0  0  0
  2  3  2  0  0  0
  2 39  1  0  0  0
  3  4  1  0  0  0
  3 40  1  0  0  0
  4  7  1  0  0  0
  4  5  2  0  0  0
  5  6  1  0  0  0
  5 41  1  0  0  0
  6 42  1  0  0  0
  7 12  2  0  0  0
  7  8  1  0  0  0
  8 32  1  0  0  0
  8  9  2  0  0  0
  9 10  1  0  0  0
  9 43  1  0  0  0
 10 11  2  0  0  0
 10 44  1  0  0  0
 11 12  1  0  0  0
 11 45  1  0  0  0
 12 46  1  0  0  0
 13 28  1  0  0  0
 13 29  1  0  0  0
 14 22  2  0  0  0
 14 17  1  0  0  0
 14 47  1  0  0  0
 15 21  2  0  0  0
 15 16  1  0  0  0
 15 48  1  0  0  0
 16 18  1  0  0  0
 16 17  2  0  0  0
 17 49  1  0  0  0
 18 20  1  0  0  0
 18 27  1  0  0  0
 19 25  1  0  0  0
 19 26  1  0  0  0
 19 20  2  0  0  0
 21 22  1  0  0  0
 21 50  1  0  0  0
 22 23  1  0  0  0
 23 24  1  0  0  0
 24 51  1  0  0  0
 24 52  1  0  0  0
 24 53  1  0  0  0
 25 38  3  0  0  0
 26 27  2  0  0  0
 26 30  1  0  0  0
 27 28  1  0  0  0
 28 31  2  0  0  0
 29 30  2  0  0  0
 29 54  1  0  0  0
 32 33  1  0  0  0
 32 55  1  0  0  0
 32 56  1  0  0  0
 33 34  1  0  0  0
 33 37  1  0  0  0
 33 65  1  0  0  0
 34 35  1  0  0  0
 34 57  1  0  0  0
 34 58  1  0  0  0
 35 36  1  0  0  0
 35 59  1  0  0  0
 35 60  1  0  0  0
 36 37  1  0  0  0
 36 61  1  0  0  0
 36 62  1  0  0  0
 37 63  1  0  0  0
 37 64  1  0  0  0
M  CHG  1  33   1
M  END
> <chembl_id>
CHEMBL385140

> <chembl_pref_name>
None

> <s_m_source_file>
sdf/inactives_sanitized.sdf

> <i_m_source_file_index>
49

> <i_lp_mmshare_version>
49012

> <i_m_ct_stereo_status>
1

> <i_f3d_flags>
0

> <s_epik_input>
W2NIXTFbY0hdYyhPW0NIM10pW2NIXVtjSF1jMS1uKG5jMkMjTiljKGMyMyljKD1PKW4oW2NIXW4zKS1jNFtjSF1bY0hdYyhbY0hdW2NIXTQpLWM1YyhbY0hdW2NIXVtjSF1bY0hdNSlbQ0gyXU42W0NIMl1bQ0gyXVtDSDJdW0NIMl02

> <s_epik_cmdline>
J2VwaWtfcHl0aG9uJywgJy1waHQnLCAnMC41JywgJy1waCcsICc3LjUnLCAnLW50JywgJy1tYScsICcyMDAnLCAnLWltYWUnLCAnPGluZmlsZS5tYWU+JywgJy1vbWFlJywgJzxvdXRmaWxlLm1hZT4n

> <r_epik_Ionization_Penalty>
  0.0322

> <r_epik_Ionization_Penalty_Charging>
  0.0322

> <r_epik_Ionization_Penalty_Neutral>
  0.0000

> <r_epik_State_Penalty>
  0.0267

> <r_epik_Charging_Adjusted_Penalty>
0.0588988185252399

> <i_epik_Tot_Q>
1

> <i_epik_Tot_abs_Q>
1

> <s_lp_Force_Field>
OPLS3e

> <r_lp_Energy>
95.396054

> <b_lp_Chiralities_Consistent>
1

> <s_lp_Variant>
sdf/inactives_sanitized.sdf:49-1

$$$$
sdf/inactives_sanitized.sdf:50
                    3D
 Schrodinger Suite 2020-1.
 68 73  0  0  1  0            999 V2000
   -3.0064   -5.1685    5.0030 N   0  0  0  0  0  0
   -3.6986   -4.8507    6.1563 C   0  0  0  0  0  0
    2.2354   -1.3112   -0.3425 C   0  0  0  0  0  0
   -4.0796   -5.8757    6.8708 N   0  0  0  0  0  0
    2.5658   -2.1960    0.7489 C   0  0  0  0  0  0
   -0.3519   -0.4303    1.2221 C   0  0  0  0  0  0
   -2.9440   -6.5564    4.9855 C   0  0  0  0  0  0
    2.9755   -3.2798   -1.1764 N   0  0  0  0  0  0
    2.5118   -2.0299   -1.4913 C   0  0  0  0  0  0
    2.5192   -2.0788    2.1476 C   0  0  0  0  0  0
    2.8050   -3.0414    4.4252 C   0  0  0  0  0  0
    0.1292    0.1596   -0.1244 C   0  0  2  0  0  0
    2.8841   -3.1569    2.9668 C   0  0  0  0  0  0
    1.6772    0.1017   -0.2569 C   0  0  0  0  0  0
   -0.9764   -1.6258    1.1479 N   0  0  0  0  0  0
    3.0179   -3.4277    0.1911 C   0  0  0  0  0  0
   -3.6262   -6.9564    6.1677 C   0  0  0  0  0  0
   -2.5220   -4.2467    4.0478 C   0  0  0  0  0  0
    3.6544   -3.7293    5.1794 N   0  3  0  0  0  0
   -0.1268    0.1898    2.2623 O   0  0  0  0  0  0
   -0.3974    1.6041   -0.3566 C   0  0  0  0  0  0
    3.3198   -4.3450    2.3651 C   0  0  0  0  0  0
    3.4030   -4.5106    0.9837 C   0  0  0  0  0  0
   -1.9377   -3.0505    4.4753 C   0  0  0  0  0  0
   -2.5732   -4.5464    2.6833 C   0  0  0  0  0  0
   -1.4776   -2.4495    2.1740 C   0  0  0  0  0  0
    1.8834   -2.2508    4.9634 N   0  0  0  0  0  0
   -2.0569   -3.6487    1.7538 C   0  0  0  0  0  0
   -1.4218   -2.1526    3.5455 C   0  0  0  0  0  0
   -1.9175    1.7413   -0.3035 C   0  0  0  0  0  0
   -2.3773   -7.4959    4.1116 C   0  0  0  0  0  0
   -3.7566   -8.3182    6.4763 C   0  0  0  0  0  0
   -2.6926    1.2970   -1.3784 C   0  0  0  0  0  0
   -2.5334    2.2974    0.8214 C   0  0  0  0  0  0
   -2.5260   -8.8434    4.4478 C   0  0  0  0  0  0
   -3.1994   -9.2483    5.5996 C   0  0  0  0  0  0
   -3.9206    2.4045    0.8725 C   0  0  0  0  0  0
   -4.0797    1.4047   -1.3269 C   0  0  0  0  0  0
   -4.6874    1.9572   -0.2014 C   0  0  0  0  0  0
   -3.8983   -3.8160    6.3953 H   0  0  0  0  0  0
    3.2294   -3.9590   -1.8795 H   0  0  0  0  0  0
    2.4074   -1.7503   -2.5298 H   0  0  0  0  0  0
    2.1949   -1.1517    2.5952 H   0  0  0  0  0  0
   -0.2758   -0.4423   -0.9416 H   0  0  0  0  0  0
    2.1523    0.6526    0.5569 H   0  0  0  0  0  0
    1.9685    0.6364   -1.1625 H   0  0  0  0  0  0
   -1.0973   -2.0041    0.2199 H   0  0  0  0  0  0
    3.6052   -3.6585    6.1851 H   0  0  0  0  0  0
    0.0569    2.2959    0.3557 H   0  0  0  0  0  0
   -0.0782    1.9561   -1.3391 H   0  0  0  0  0  0
    3.5981   -5.1816    2.9888 H   0  0  0  0  0  0
    3.7426   -5.4420    0.5545 H   0  0  0  0  0  0
   -1.8726   -2.8116    5.5270 H   0  0  0  0  0  0
   -3.0266   -5.4612    2.3313 H   0  0  0  0  0  0
    1.8166   -2.1640    5.9668 H   0  0  0  0  0  0
    1.2483   -1.7439    4.3637 H   0  0  0  0  0  0
   -2.1111   -3.8947    0.7026 H   0  0  0  0  0  0
   -0.9847   -1.2445    3.9259 H   0  0  0  0  0  0
   -1.8417   -7.2082    3.2196 H   0  0  0  0  0  0
   -4.2725   -8.6425    7.3683 H   0  0  0  0  0  0
   -2.2218    0.8644   -2.2493 H   0  0  0  0  0  0
   -1.9403    2.6389    1.6575 H   0  0  0  0  0  0
   -2.1043   -9.5957    3.7975 H   0  0  0  0  0  0
   -3.2878  -10.3025    5.8180 H   0  0  0  0  0  0
   -4.3995    2.8309    1.7415 H   0  0  0  0  0  0
   -4.6818    1.0603   -2.1548 H   0  0  0  0  0  0
   -5.7635    2.0392   -0.1610 H   0  0  0  0  0  0
    4.3502   -4.3163    4.7429 H   0  0  0  0  0  0
  1  2  1  0  0  0
  1  7  1  0  0  0
  1 18  1  0  0  0
  2  4  2  0  0  0
  2 40  1  0  0  0
  3 14  1  0  0  0
  3  5  1  0  0  0
  3  9  2  0  0  0
  4 17  1  0  0  0
  5 10  1  0  0  0
  5 16  2  0  0  0
  6 15  1  0  0  0
  6 12  1  0  0  0
  6 20  2  0  0  0
  7 17  2  0  0  0
  7 31  1  0  0  0
  8  9  1  0  0  0
  8 16  1  0  0  0
  8 41  1  0  0  0
  9 42  1  0  0  0
 10 13  2  0  0  0
 10 43  1  0  0  0
 11 13  1  0  0  0
 11 19  2  0  0  0
 11 27  1  0  0  0
 12 14  1  0  0  0
 12 21  1  0  0  0
 12 44  1  0  0  0
 13 22  1  0  0  0
 14 45  1  0  0  0
 14 46  1  0  0  0
 15 26  1  0  0  0
 15 47  1  0  0  0
 16 23  1  0  0  0
 17 32  1  0  0  0
 18 24  2  0  0  0
 18 25  1  0  0  0
 19 48  1  0  0  0
 19 68  1  0  0  0
 21 30  1  0  0  0
 21 49  1  0  0  0
 21 50  1  0  0  0
 22 23  2  0  0  0
 22 51  1  0  0  0
 23 52  1  0  0  0
 24 29  1  0  0  0
 24 53  1  0  0  0
 25 28  2  0  0  0
 25 54  1  0  0  0
 26 28  1  0  0  0
 26 29  2  0  0  0
 27 55  1  0  0  0
 27 56  1  0  0  0
 28 57  1  0  0  0
 29 58  1  0  0  0
 30 33  2  0  0  0
 30 34  1  0  0  0
 31 35  2  0  0  0
 31 59  1  0  0  0
 32 36  2  0  0  0
 32 60  1  0  0  0
 33 38  1  0  0  0
 33 61  1  0  0  0
 34 37  2  0  0  0
 34 62  1  0  0  0
 35 36  1  0  0  0
 35 63  1  0  0  0
 36 64  1  0  0  0
 37 39  1  0  0  0
 37 65  1  0  0  0
 38 39  2  0  0  0
 38 66  1  0  0  0
 39 67  1  0  0  0
M  CHG  1  19   1
M  END
> <chembl_id>
CHEMBL363101

> <chembl_pref_name>
None

> <s_m_source_file>
sdf/inactives_sanitized.sdf

> <i_m_source_file_index>
50

> <i_lp_mmshare_version>
49012

> <i_m_ct_stereo_status>
1

> <i_f3d_flags>
0

> <s_epik_input>
W2NIXTFbY0hdW2NIXVtjSF1jKGMxMiluW2NIXW4yLWMzW2NIXVtjSF1jKFtjSF1bY0hdMylbTkhdQyg9TylbQ0BASF0oW0NIMl1jNFtjSF1bY0hdW2NIXVtjSF1bY0hdNClbQ0gyXWM1W2NIXVtuSF1jKGM1NilbY0hdW2NIXWMoW2NIXTYpL0MoPU4vW0hdKVtOSDJd

> <s_epik_cmdline>
J2VwaWtfcHl0aG9uJywgJy1waHQnLCAnMC41JywgJy1waCcsICc3LjUnLCAnLW50JywgJy1tYScsICcyMDAnLCAnLWltYWUnLCAnPGluZmlsZS5tYWU+JywgJy1vbWFlJywgJzxvdXRmaWxlLm1hZT4n

> <r_epik_Ionization_Penalty>
  0.0112

> <r_epik_Ionization_Penalty_Charging>
  0.0010

> <r_epik_Ionization_Penalty_Neutral>
  0.0102

> <r_epik_State_Penalty>
  0.0078

> <r_epik_Charging_Adjusted_Penalty>
0.00877873498810205

> <i_epik_Tot_Q>
1

> <i_epik_Tot_abs_Q>
1

> <s_epik_Chemistry_Notes>
This compound has an imine and may undergo hydrolysis.

> <s_lp_Force_Field>
OPLS3e

> <r_lp_Energy>
45.181055

> <b_lp_Chiralities_Consistent>
1

> <s_lp_Variant>
sdf/inactives_sanitized.sdf:50-1

$$$$
sdf/inactives_sanitized.sdf:51
                    3D
 Schrodinger Suite 2020-1.
 55 59  0  0  1  0            999 V2000
    3.2590   -0.6553   -7.2418 N   0  0  0  0  0  0
   -0.1536   -0.3049    0.4522 C   0  0  0  0  0  0
    3.5630    0.4047   -8.0749 C   0  0  0  0  0  0
   -0.7614    0.9255    0.0041 C   0  0  0  0  0  0
    3.8478    0.0739   -9.3059 N   0  0  0  0  0  0
   -1.2152   -1.1403    0.7631 C   0  0  0  0  0  0
    1.8945   -1.1326   -0.7934 C   0  0  0  0  0  0
   -2.4086   -0.5098    0.5299 N   0  0  0  0  0  0
    3.3656   -1.7885   -8.0387 C   0  0  0  0  0  0
    1.3424   -0.5969    0.5481 C   0  0  2  0  0  0
   -0.2501    2.1542   -0.4461 C   0  0  0  0  0  0
   -0.5846    4.4707   -1.3048 C   0  0  0  0  0  0
   -1.1163    3.1886   -0.8321 C   0  0  0  0  0  0
    1.8460   -0.2593   -1.8247 N   0  0  0  0  0  0
   -2.1765    0.7629    0.0607 C   0  0  0  0  0  0
    3.7347   -1.2882   -9.3179 C   0  0  0  0  0  0
    2.9517   -0.5648   -5.8657 C   0  0  0  0  0  0
   -1.2922    5.5788   -1.1159 N   0  3  0  0  0  0
    2.3108   -2.2894   -0.8758 O   0  0  0  0  0  0
   -2.4993    2.9729   -0.7578 C   0  0  0  0  0  0
   -3.0602    1.7758   -0.3159 C   0  0  0  0  0  0
    2.1257    0.4668   -5.4081 C   0  0  0  0  0  0
    3.4240   -1.5284   -4.9692 C   0  0  0  0  0  0
    2.2497   -0.4240   -3.1624 C   0  0  0  0  0  0
    0.5956    4.5012   -1.9136 N   0  0  0  0  0  0
    1.7831    0.5380   -4.0610 C   0  0  0  0  0  0
    3.0837   -1.4555   -3.6214 C   0  0  0  0  0  0
    3.1761   -3.1599   -7.8135 C   0  0  0  0  0  0
    1.6714   -1.5115    1.7528 C   0  0  0  0  0  0
    3.9302   -2.1731  -10.3880 C   0  0  0  0  0  0
    3.3782   -4.0138   -8.9003 C   0  0  0  0  0  0
    3.7475   -3.5363  -10.1572 C   0  0  0  0  0  0
    3.5659    1.4118   -7.6834 H   0  0  0  0  0  0
   -1.2185   -2.1555    1.1331 H   0  0  0  0  0  0
   -3.3003   -0.9562    0.6913 H   0  0  0  0  0  0
    1.8670    0.3405    0.7422 H   0  0  0  0  0  0
    0.8184    2.3032   -0.4887 H   0  0  0  0  0  0
    1.4042    0.6269   -1.6319 H   0  0  0  0  0  0
   -0.9362    6.4655   -1.4414 H   0  0  0  0  0  0
   -3.1735    3.7600   -1.0614 H   0  0  0  0  0  0
   -4.1319    1.6454   -0.2735 H   0  0  0  0  0  0
    1.7385    1.2102   -6.0901 H   0  0  0  0  0  0
    4.0724   -2.3254   -5.3019 H   0  0  0  0  0  0
    0.9705    5.3808   -2.2379 H   0  0  0  0  0  0
    1.1133    3.6455   -2.0496 H   0  0  0  0  0  0
    1.1426    1.3410   -3.7242 H   0  0  0  0  0  0
    3.4897   -2.2036   -2.9594 H   0  0  0  0  0  0
    2.8793   -3.5536   -6.8529 H   0  0  0  0  0  0
    1.2127   -2.4969    1.6577 H   0  0  0  0  0  0
    1.3151   -1.0735    2.6860 H   0  0  0  0  0  0
    2.7471   -1.6589    1.8596 H   0  0  0  0  0  0
    4.2123   -1.8130  -11.3666 H   0  0  0  0  0  0
    3.2415   -5.0767   -8.7641 H   0  0  0  0  0  0
    3.8909   -4.2359  -10.9679 H   0  0  0  0  0  0
   -2.1837    5.5299   -0.6447 H   0  0  0  0  0  0
  1  3  1  0  0  0
  1  9  1  0  0  0
  1 17  1  0  0  0
  2 10  1  0  0  0
  2  4  1  0  0  0
  2  6  2  0  0  0
  3  5  2  0  0  0
  3 33  1  0  0  0
  4 11  2  0  0  0
  4 15  1  0  0  0
  5 16  1  0  0  0
  6  8  1  0  0  0
  6 34  1  0  0  0
  7 14  1  0  0  0
  7 10  1  0  0  0
  7 19  2  0  0  0
  8 15  1  0  0  0
  8 35  1  0  0  0
  9 16  2  0  0  0
  9 28  1  0  0  0
 10 29  1  0  0  0
 10 36  1  0  0  0
 11 13  1  0  0  0
 11 37  1  0  0  0
 12 13  1  0  0  0
 12 18  2  0  0  0
 12 25  1  0  0  0
 13 20  2  0  0  0
 14 24  1  0  0  0
 14 38  1  0  0  0
 15 21  2  0  0  0
 16 30  1  0  0  0
 17 22  2  0  0  0
 17 23  1  0  0  0
 18 39  1  0  0  0
 18 55  1  0  0  0
 20 21  1  0  0  0
 20 40  1  0  0  0
 21 41  1  0  0  0
 22 26  1  0  0  0
 22 42  1  0  0  0
 23 27  2  0  0  0
 23 43  1  0  0  0
 24 27  1  0  0  0
 24 26  2  0  0  0
 25 44  1  0  0  0
 25 45  1  0  0  0
 26 46  1  0  0  0
 27 47  1  0  0  0
 28 31  2  0  0  0
 28 48  1  0  0  0
 29 49  1  0  0  0
 29 50  1  0  0  0
 29 51  1  0  0  0
 30 32  2  0  0  0
 30 52  1  0  0  0
 31 32  1  0  0  0
 31 53  1  0  0  0
 32 54  1  0  0  0
M  CHG  1  18   1
M  END
> <chembl_id>
CHEMBL185269

> <chembl_pref_name>
None

> <s_m_source_file>
sdf/inactives_sanitized.sdf

> <i_m_source_file_index>
51

> <i_lp_mmshare_version>
49012

> <i_m_ct_stereo_status>
1

> <i_f3d_flags>
0

> <s_epik_input>
W2NIXTFbY0hdW2NIXVtjSF1jKGMxMiluW2NIXW4yLWMzW2NIXVtjSF1jKFtjSF1bY0hdMylbTkhdQyg9TylbQ0BIXShbQ0gzXSljNFtjSF1bbkhdYyhjNDUpW2NIXVtjSF1jKFtjSF01KS9DKD1OL1tIXSlbTkgyXQ==

> <s_epik_cmdline>
J2VwaWtfcHl0aG9uJywgJy1waHQnLCAnMC41JywgJy1waCcsICc3LjUnLCAnLW50JywgJy1tYScsICcyMDAnLCAnLWltYWUnLCAnPGluZmlsZS5tYWU+JywgJy1vbWFlJywgJzxvdXRmaWxlLm1hZT4n

> <r_epik_Ionization_Penalty>
  0.0112

> <r_epik_Ionization_Penalty_Charging>
  0.0010

> <r_epik_Ionization_Penalty_Neutral>
  0.0102

> <r_epik_State_Penalty>
  0.0078

> <r_epik_Charging_Adjusted_Penalty>
0.00877873498810205

> <i_epik_Tot_Q>
1

> <i_epik_Tot_abs_Q>
1

> <s_epik_Chemistry_Notes>
This compound has an imine and may undergo hydrolysis.

> <s_lp_Force_Field>
OPLS3e

> <r_lp_Energy>
43.417551

> <b_lp_Chiralities_Consistent>
1

> <s_lp_Variant>
sdf/inactives_sanitized.sdf:51-1

$$$$
sdf/inactives_sanitized.sdf:52
                    3D
 Schrodinger Suite 2020-1.
 35 37  0  0  1  0            999 V2000
   -0.9425   -1.3084   -0.0000 C   0  0  0  0  0  0
   -2.3308   -1.2292   -0.0000 C   0  0  0  0  0  0
   -2.9811    0.0009   -0.0000 C   0  0  0  0  0  0
   -0.1507   -0.1503   -0.0000 C   0  0  0  0  0  0
   -0.7776    1.1131   -0.0000 C   0  0  0  0  0  0
   -2.2008    1.1655   -0.0000 C   0  0  0  0  0  0
   -2.7824    2.8207   -0.0000 S   0  0  0  0  0  0
   -1.1350    3.4529   -0.0000 C   0  0  0  0  0  0
   -0.2061    2.4183   -0.0000 C   0  0  0  0  0  0
   -0.8760    4.8205   -0.0000 C   0  0  0  0  0  0
   -1.8816    5.6873   -0.0000 N   0  0  0  0  0  0
    0.3842    5.2387    0.0000 N   0  3  0  0  0  0
    1.2306   -0.1193   -0.0000 O   0  0  0  0  0  0
    1.9493   -1.3485    0.0000 C   0  0  0  0  0  0
    3.4375   -1.0443    0.0000 C   0  0  0  0  0  0
    4.1191   -0.8976   -1.2112 C   0  0  0  0  0  0
    5.4815   -0.6095   -1.2108 C   0  0  0  0  0  0
    6.1563   -0.4671   -0.0000 C   0  0  0  0  0  0
    5.4815   -0.6096    1.2108 C   0  0  0  0  0  0
    4.1191   -0.8975    1.2112 C   0  0  0  0  0  0
   -0.4897   -2.2885   -0.0000 H   0  0  0  0  0  0
   -2.9137   -2.1390   -0.0000 H   0  0  0  0  0  0
   -4.0604    0.0508   -0.0000 H   0  0  0  0  0  0
    0.8619    2.5788   -0.0000 H   0  0  0  0  0  0
   -1.6918    6.6787   -0.0000 H   0  0  0  0  0  0
   -2.8330    5.3493   -0.0001 H   0  0  0  0  0  0
    0.5856    6.2278    0.0000 H   0  0  0  0  0  0
    1.6972   -1.9454    0.8790 H   0  0  0  0  0  0
    1.6972   -1.9455   -0.8789 H   0  0  0  0  0  0
    3.5960   -1.0046   -2.1506 H   0  0  0  0  0  0
    6.0129   -0.4966   -2.1444 H   0  0  0  0  0  0
    7.2126   -0.2424   -0.0000 H   0  0  0  0  0  0
    6.0130   -0.4966    2.1444 H   0  0  0  0  0  0
    3.5961   -1.0047    2.1506 H   0  0  0  0  0  0
    1.1365    4.5658    0.0001 H   0  0  0  0  0  0
  1  4  2  0  0  0
  1  2  1  0  0  0
  1 21  1  0  0  0
  2  3  2  0  0  0
  2 22  1  0  0  0
  3  6  1  0  0  0
  3 23  1  0  0  0
  4 13  1  0  0  0
  4  5  1  0  0  0
  5  6  2  0  0  0
  5  9  1  0  0  0
  6  7  1  0  0  0
  7  8  1  0  0  0
  8 10  1  0  0  0
  8  9  2  0  0  0
  9 24  1  0  0  0
 10 11  1  0  0  0
 10 12  2  0  0  0
 11 25  1  0  0  0
 11 26  1  0  0  0
 12 27  1  0  0  0
 12 35  1  0  0  0
 13 14  1  0  0  0
 14 15  1  0  0  0
 14 28  1  0  0  0
 14 29  1  0  0  0
 15 20  1  0  0  0
 15 16  2  0  0  0
 16 17  1  0  0  0
 16 30  1  0  0  0
 17 18  2  0  0  0
 17 31  1  0  0  0
 18 19  1  0  0  0
 18 32  1  0  0  0
 19 20  2  0  0  0
 19 33  1  0  0  0
 20 34  1  0  0  0
M  CHG  1  12   1
M  END
> <chembl_id>
CHEMBL598191

> <chembl_pref_name>
None

> <s_m_source_file>
sdf/inactives_sanitized.sdf

> <i_m_source_file_index>
52

> <i_lp_mmshare_version>
49012

> <i_m_ct_stereo_status>
1

> <i_f3d_flags>
0

> <s_epik_input>
W0hdXE49QyhbTkgyXSlcYyhbY0hdMSlzYyhjMTIpW2NIXVtjSF1bY0hdYzJPW0NIMl1jM1tjSF1bY0hdW2NIXVtjSF1bY0hdMw==

> <s_epik_cmdline>
J2VwaWtfcHl0aG9uJywgJy1waHQnLCAnMC41JywgJy1waCcsICc3LjUnLCAnLW50JywgJy1tYScsICcyMDAnLCAnLWltYWUnLCAnPGluZmlsZS5tYWU+JywgJy1vbWFlJywgJzxvdXRmaWxlLm1hZT4n

> <r_lp_tautomer_probability>
1

> <r_epik_Ionization_Penalty>
  0.0095

> <r_epik_Ionization_Penalty_Charging>
  0.0095

> <r_epik_Ionization_Penalty_Neutral>
  0.0000

> <r_epik_State_Penalty>
 -0.0000

> <r_epik_Charging_Adjusted_Penalty>
0.00945881282357717

> <i_epik_Tot_Q>
1

> <i_epik_Tot_abs_Q>
1

> <s_epik_Chemistry_Notes>
This compound has an imine and may undergo hydrolysis.

> <s_lp_Force_Field>
OPLS3e

> <r_lp_Energy>
23.749194

> <b_lp_Chiralities_Consistent>
1

> <s_lp_Variant>
sdf/inactives_sanitized.sdf:52-1

$$$$
sdf/inactives_sanitized.sdf:53
                    3D
 Schrodinger Suite 2020-1.
 49 52  0  0  1  0            999 V2000
   -0.0711    0.1950    0.0291 O   0  0  0  0  0  0
   -0.8196    1.3985   -0.1149 C   0  0  0  0  0  0
   -2.3015    1.0635   -0.1256 C   0  0  0  0  0  0
   -3.0012    1.0140   -1.3323 C   0  0  0  0  0  0
   -5.0328    0.4544   -0.1320 C   0  0  0  0  0  0
   -4.3217    0.4996    1.0681 C   0  0  0  0  0  0
   -4.3605    0.7124   -1.3376 C   0  0  0  0  0  0
   -2.9627    0.8017    1.0751 C   0  0  0  0  0  0
    4.2400    2.6990   -0.0160 C   0  0  0  0  0  0
    5.3846    2.7734   -0.8152 C   0  0  0  0  0  0
    6.1433    3.9361   -0.9104 C   0  0  0  0  0  0
    3.8378    3.8261    0.7132 C   0  0  0  0  0  0
    4.5774    5.0199    0.6496 C   0  0  0  0  0  0
    5.7355    5.0551   -0.1747 C   0  0  0  0  0  0
    6.5154    6.6266   -0.1217 S   0  0  0  0  0  0
    5.3082    7.2291    1.0087 C   0  0  0  0  0  0
    4.3558    6.2636    1.3042 C   0  0  0  0  0  0
    5.3595    8.5272    1.4822 C   0  0  0  0  0  0
    6.5401    9.0900    1.7067 N   0  0  0  0  0  0
    4.2196    9.1680    1.7073 N   0  3  0  0  0  0
    3.4581    1.4324    0.0624 C   0  0  0  0  0  0
    4.1064    0.1976    0.1959 C   0  0  0  0  0  0
    1.9868   -0.9534    0.2148 C   0  0  0  0  0  0
    1.3082    0.2585    0.0802 C   0  0  0  0  0  0
    3.3778   -0.9872    0.2726 C   0  0  0  0  0  0
    2.0567    1.4466    0.0057 C   0  0  0  0  0  0
   -6.3777    0.1512   -0.0397 O   0  0  0  0  0  0
   -7.1634    0.1090   -1.2261 C   0  0  0  0  0  0
   -0.5461    1.9102   -1.0402 H   0  0  0  0  0  0
   -0.6151    2.0830    0.7109 H   0  0  0  0  0  0
   -2.4957    1.2092   -2.2669 H   0  0  0  0  0  0
   -4.8272    0.3010    2.0020 H   0  0  0  0  0  0
   -4.8750    0.6838   -2.2860 H   0  0  0  0  0  0
   -2.4268    0.8329    2.0128 H   0  0  0  0  0  0
    5.6962    1.9100   -1.3854 H   0  0  0  0  0  0
    7.0233    3.9683   -1.5362 H   0  0  0  0  0  0
    2.9583    3.7739    1.3385 H   0  0  0  0  0  0
    3.5266    6.4343    1.9749 H   0  0  0  0  0  0
    6.5902   10.0381    2.0492 H   0  0  0  0  0  0
    7.3851    8.5658    1.5321 H   0  0  0  0  0  0
    4.2357   10.1172    2.0502 H   0  0  0  0  0  0
    5.1845    0.1505    0.2486 H   0  0  0  0  0  0
    1.4301   -1.8773    0.2743 H   0  0  0  0  0  0
    3.8913   -1.9316    0.3783 H   0  0  0  0  0  0
    1.5564    2.3968   -0.1051 H   0  0  0  0  0  0
   -8.1923   -0.1404   -0.9672 H   0  0  0  0  0  0
   -6.8035   -0.6536   -1.9182 H   0  0  0  0  0  0
   -7.1759    1.0756   -1.7319 H   0  0  0  0  0  0
    3.3408    8.7078    1.5213 H   0  0  0  0  0  0
  1 24  1  0  0  0
  1  2  1  0  0  0
  2  3  1  0  0  0
  2 29  1  0  0  0
  2 30  1  0  0  0
  3  8  2  0  0  0
  3  4  1  0  0  0
  4  7  2  0  0  0
  4 31  1  0  0  0
  5  7  1  0  0  0
  5  6  2  0  0  0
  5 27  1  0  0  0
  6  8  1  0  0  0
  6 32  1  0  0  0
  7 33  1  0  0  0
  8 34  1  0  0  0
  9 10  2  0  0  0
  9 21  1  0  0  0
  9 12  1  0  0  0
 10 11  1  0  0  0
 10 35  1  0  0  0
 11 14  2  0  0  0
 11 36  1  0  0  0
 12 13  2  0  0  0
 12 37  1  0  0  0
 13 17  1  0  0  0
 13 14  1  0  0  0
 14 15  1  0  0  0
 15 16  1  0  0  0
 16 17  2  0  0  0
 16 18  1  0  0  0
 17 38  1  0  0  0
 18 19  1  0  0  0
 18 20  2  0  0  0
 19 39  1  0  0  0
 19 40  1  0  0  0
 20 41  1  0  0  0
 20 49  1  0  0  0
 21 22  2  0  0  0
 21 26  1  0  0  0
 22 25  1  0  0  0
 22 42  1  0  0  0
 23 24  1  0  0  0
 23 25  2  0  0  0
 23 43  1  0  0  0
 24 26  2  0  0  0
 25 44  1  0  0  0
 26 45  1  0  0  0
 27 28  1  0  0  0
 28 46  1  0  0  0
 28 47  1  0  0  0
 28 48  1  0  0  0
M  CHG  1  20   1
M  END
> <chembl_id>
CHEMBL599628

> <chembl_pref_name>
None

> <s_m_source_file>
sdf/inactives_sanitized.sdf

> <i_m_source_file_index>
53

> <i_lp_mmshare_version>
49012

> <i_m_ct_stereo_status>
1

> <i_f3d_flags>
0

> <s_epik_input>
W2NIXTFbY0hdYyhPW0NIM10pW2NIXVtjSF1jMVtDSDJdT2MoW2NIXTIpW2NIXVtjSF1bY0hdYzItYyhbY0hdMylbY0hdW2NIXWMoYzM0KXNjKFtjSF00KS9DKFtOSDJdKT1OL1tIXQ==

> <s_epik_cmdline>
J2VwaWtfcHl0aG9uJywgJy1waHQnLCAnMC41JywgJy1waCcsICc3LjUnLCAnLW50JywgJy1tYScsICcyMDAnLCAnLWltYWUnLCAnPGluZmlsZS5tYWU+JywgJy1vbWFlJywgJzxvdXRmaWxlLm1hZT4n

> <r_lp_tautomer_probability>
1

> <r_epik_Ionization_Penalty>
  0.0095

> <r_epik_Ionization_Penalty_Charging>
  0.0095

> <r_epik_Ionization_Penalty_Neutral>
  0.0000

> <r_epik_State_Penalty>
 -0.0000

> <r_epik_Charging_Adjusted_Penalty>
0.00945881282357717

> <i_epik_Tot_Q>
1

> <i_epik_Tot_abs_Q>
1

> <s_epik_Chemistry_Notes>
This compound has an imine and may undergo hydrolysis.

> <s_lp_Force_Field>
OPLS3e

> <r_lp_Energy>
36.59205

> <b_lp_Chiralities_Consistent>
1

> <s_lp_Variant>
sdf/inactives_sanitized.sdf:53-1

$$$$
sdf/inactives_sanitized.sdf:54
                    3D
 Schrodinger Suite 2020-1.
 48 51  0  0  1  0            999 V2000
    0.2478    0.1935   -0.0312 O   0  0  0  0  0  0
   -0.4358    1.4434   -0.0563 C   0  0  0  0  0  0
    4.2818   -2.5525    0.0699 C   0  0  0  0  0  0
    5.3898   -2.7585    0.8972 C   0  0  0  0  0  0
    6.0137   -3.9979    0.9998 C   0  0  0  0  0  0
    3.7785   -3.6228   -0.6822 C   0  0  0  0  0  0
    4.3792   -4.8918   -0.6100 C   0  0  0  0  0  0
    5.5041   -5.0601    0.2437 C   0  0  0  0  0  0
    6.1065   -6.7076    0.1982 S   0  0  0  0  0  0
    4.8674   -7.1678   -0.9634 C   0  0  0  0  0  0
    4.0378   -6.1005   -1.2788 C   0  0  0  0  0  0
    4.7829   -8.4635   -1.4381 C   0  0  0  0  0  0
    5.8977   -9.1549   -1.6390 N   0  0  0  0  0  0
    3.5834   -8.9738   -1.6858 N   0  3  0  0  0  0
    3.6424   -1.2083   -0.0080 C   0  0  0  0  0  0
    4.4209   -0.0463   -0.0893 C   0  0  0  0  0  0
    2.4355    1.3255   -0.1391 C   0  0  0  0  0  0
    1.6292    0.1788   -0.0578 C   0  0  0  0  0  0
    3.8235    1.2105   -0.1555 C   0  0  0  0  0  0
    2.2469   -1.0731    0.0034 C   0  0  0  0  0  0
   -1.9478    1.1798    0.0035 C   0  0  0  0  0  0
   -2.7663    2.4623    0.0034 C   0  0  0  0  0  0
   -3.1035    3.0745    1.2137 C   0  0  0  0  0  0
   -4.2495    4.8135    0.0031 C   0  0  0  0  0  0
   -3.9154    4.2084   -1.2068 C   0  0  0  0  0  0
   -3.8466    4.2522    1.2132 C   0  0  0  0  0  0
   -3.1725    3.0306   -1.2071 C   0  0  0  0  0  0
   -0.1318    2.0512    0.7983 H   0  0  0  0  0  0
   -0.1893    1.9851   -0.9716 H   0  0  0  0  0  0
    5.7780   -1.9397    1.4859 H   0  0  0  0  0  0
    6.8670   -4.1315    1.6489 H   0  0  0  0  0  0
    2.9260   -3.4706   -1.3283 H   0  0  0  0  0  0
    3.2121   -6.1751   -1.9708 H   0  0  0  0  0  0
    5.8480  -10.1049   -1.9766 H   0  0  0  0  0  0
    6.7923   -8.7284   -1.4456 H   0  0  0  0  0  0
    3.5005   -9.9199   -2.0278 H   0  0  0  0  0  0
    5.4992   -0.1117   -0.1063 H   0  0  0  0  0  0
    2.0040    2.3136   -0.1905 H   0  0  0  0  0  0
    4.4376    2.0967   -0.2191 H   0  0  0  0  0  0
    1.6247   -1.9541    0.0722 H   0  0  0  0  0  0
   -2.2526    0.5562   -0.8385 H   0  0  0  0  0  0
   -2.1912    0.5966    0.8932 H   0  0  0  0  0  0
   -2.7894    2.6417    2.1526 H   0  0  0  0  0  0
   -4.8255    5.7272    0.0030 H   0  0  0  0  0  0
   -4.2303    4.6513   -2.1403 H   0  0  0  0  0  0
   -4.1085    4.7288    2.1464 H   0  0  0  0  0  0
   -2.9117    2.5637   -2.1459 H   0  0  0  0  0  0
    2.7578   -8.4183   -1.5166 H   0  0  0  0  0  0
  1  2  1  0  0  0
  1 18  1  0  0  0
  2 21  1  0  0  0
  2 28  1  0  0  0
  2 29  1  0  0  0
  3  4  2  0  0  0
  3 15  1  0  0  0
  3  6  1  0  0  0
  4  5  1  0  0  0
  4 30  1  0  0  0
  5  8  2  0  0  0
  5 31  1  0  0  0
  6  7  2  0  0  0
  6 32  1  0  0  0
  7  8  1  0  0  0
  7 11  1  0  0  0
  8  9  1  0  0  0
  9 10  1  0  0  0
 10 11  2  0  0  0
 10 12  1  0  0  0
 11 33  1  0  0  0
 12 14  2  0  0  0
 12 13  1  0  0  0
 13 34  1  0  0  0
 13 35  1  0  0  0
 14 36  1  0  0  0
 14 48  1  0  0  0
 15 16  2  0  0  0
 15 20  1  0  0  0
 16 19  1  0  0  0
 16 37  1  0  0  0
 17 18  1  0  0  0
 17 19  2  0  0  0
 17 38  1  0  0  0
 18 20  2  0  0  0
 19 39  1  0  0  0
 20 40  1  0  0  0
 21 22  1  0  0  0
 21 41  1  0  0  0
 21 42  1  0  0  0
 22 23  2  0  0  0
 22 27  1  0  0  0
 23 26  1  0  0  0
 23 43  1  0  0  0
 24 25  1  0  0  0
 24 26  2  0  0  0
 24 44  1  0  0  0
 25 27  2  0  0  0
 25 45  1  0  0  0
 26 46  1  0  0  0
 27 47  1  0  0  0
M  CHG  1  14   1
M  END
> <chembl_id>
CHEMBL608442

> <chembl_pref_name>
None

> <s_m_source_file>
sdf/inactives_sanitized.sdf

> <i_m_source_file_index>
54

> <i_lp_mmshare_version>
49012

> <i_m_ct_stereo_status>
1

> <i_f3d_flags>
0

> <s_epik_input>
W2NIXTFbY0hdW2NIXVtjSF1bY0hdYzFbQ0gyXVtDSDJdT2MoW2NIXTIpW2NIXVtjSF1bY0hdYzItYyhbY0hdMylbY0hdW2NIXWMoYzM0KXNjKFtjSF00KS9DKFtOSDJdKT1OL1tIXQ==

> <s_epik_cmdline>
J2VwaWtfcHl0aG9uJywgJy1waHQnLCAnMC41JywgJy1waCcsICc3LjUnLCAnLW50JywgJy1tYScsICcyMDAnLCAnLWltYWUnLCAnPGluZmlsZS5tYWU+JywgJy1vbWFlJywgJzxvdXRmaWxlLm1hZT4n

> <r_lp_tautomer_probability>
1

> <r_epik_Ionization_Penalty>
  0.0095

> <r_epik_Ionization_Penalty_Charging>
  0.0095

> <r_epik_Ionization_Penalty_Neutral>
  0.0000

> <r_epik_State_Penalty>
 -0.0000

> <r_epik_Charging_Adjusted_Penalty>
0.00945881282357717

> <i_epik_Tot_Q>
1

> <i_epik_Tot_abs_Q>
1

> <s_epik_Chemistry_Notes>
This compound has an imine and may undergo hydrolysis.

> <s_lp_Force_Field>
OPLS3e

> <r_lp_Energy>
31.88717

> <b_lp_Chiralities_Consistent>
1

> <s_lp_Variant>
sdf/inactives_sanitized.sdf:54-1

$$$$
sdf/inactives_sanitized.sdf:55
                    3D
 Schrodinger Suite 2020-1.
 48 51  0  0  1  0            999 V2000
    0.1505    0.0657    0.0577 O   0  0  0  0  0  0
    4.4104    2.6584   -0.1206 C   0  0  0  0  0  0
    5.6059    2.7663    0.5969 C   0  0  0  0  0  0
    6.3371    3.9493    0.6402 C   0  0  0  0  0  0
    3.9292    3.7736   -0.8202 C   0  0  0  0  0  0
    4.6340    4.9891   -0.8007 C   0  0  0  0  0  0
    5.8454    5.0575   -0.0597 C   0  0  0  0  0  0
    6.5707    6.6526   -0.1591 S   0  0  0  0  0  0
    5.2636    7.2235   -1.1903 C   0  0  0  0  0  0
    4.3261    6.2283   -1.4277 C   0  0  0  0  0  0
    5.2339    8.5271   -1.6496 C   0  0  0  0  0  0
    6.3739    9.1342   -1.9546 N   0  0  0  0  0  0
    4.0586    9.1297   -1.7776 N   0  3  0  0  0  0
    3.6536    1.3728   -0.1371 C   0  0  0  0  0  0
    4.3217    0.1461   -0.2473 C   0  0  0  0  0  0
    2.2266   -1.0448   -0.1484 C   0  0  0  0  0  0
    1.5280    0.1580   -0.0397 C   0  0  0  0  0  0
    3.6151   -1.0545   -0.2530 C   0  0  0  0  0  0
    2.2544    1.3612   -0.0385 C   0  0  0  0  0  0
   -0.6608    1.2394    0.1866 C   0  0  2  0  0  0
   -0.4888    1.9111    1.5525 C   0  0  0  0  0  0
   -2.1176    0.8153   -0.0524 C   0  0  0  0  0  0
   -0.5768    3.3031    1.6490 C   0  0  0  0  0  0
   -0.4238    3.9282    2.8836 C   0  0  0  0  0  0
   -0.1862    3.1611    4.0220 C   0  0  0  0  0  0
   -0.1015    1.7731    3.9357 C   0  0  0  0  0  0
   -0.2541    1.1472    2.7014 C   0  0  0  0  0  0
   -0.0381    3.7690    5.2208 F   0  0  0  0  0  0
    5.9806    1.9139    1.1456 H   0  0  0  0  0  0
    7.2573    4.0064    1.2035 H   0  0  0  0  0  0
    3.0106    3.6989   -1.3836 H   0  0  0  0  0  0
    3.4452    6.3758   -2.0348 H   0  0  0  0  0  0
    6.3643   10.0861   -2.2902 H   0  0  0  0  0  0
    7.2481    8.6408   -1.8452 H   0  0  0  0  0  0
    4.0149   10.0813   -2.1115 H   0  0  0  0  0  0
    5.3981    0.1157   -0.3340 H   0  0  0  0  0  0
    1.6871   -1.9807   -0.1525 H   0  0  0  0  0  0
    4.1437   -1.9925   -0.3387 H   0  0  0  0  0  0
    1.7393    2.3047    0.0511 H   0  0  0  0  0  0
   -0.3904    1.9380   -0.6079 H   0  0  0  0  0  0
   -2.7916    1.6714   -0.0065 H   0  0  0  0  0  0
   -2.4491    0.0904    0.6922 H   0  0  0  0  0  0
   -2.2354    0.3579   -1.0352 H   0  0  0  0  0  0
   -0.7631    3.9017    0.7690 H   0  0  0  0  0  0
   -0.4906    5.0037    2.9586 H   0  0  0  0  0  0
    0.0810    1.1844    4.8227 H   0  0  0  0  0  0
   -0.1887    0.0704    2.6404 H   0  0  0  0  0  0
    3.2132    8.6368   -1.5292 H   0  0  0  0  0  0
  1 17  1  0  0  0
  1 20  1  0  0  0
  2 14  1  0  0  0
  2  3  2  0  0  0
  2  5  1  0  0  0
  3  4  1  0  0  0
  3 29  1  0  0  0
  4  7  2  0  0  0
  4 30  1  0  0  0
  5  6  2  0  0  0
  5 31  1  0  0  0
  6 10  1  0  0  0
  6  7  1  0  0  0
  7  8  1  0  0  0
  8  9  1  0  0  0
  9 10  2  0  0  0
  9 11  1  0  0  0
 10 32  1  0  0  0
 11 12  1  0  0  0
 11 13  2  0  0  0
 12 33  1  0  0  0
 12 34  1  0  0  0
 13 35  1  0  0  0
 13 48  1  0  0  0
 14 15  2  0  0  0
 14 19  1  0  0  0
 15 18  1  0  0  0
 15 36  1  0  0  0
 16 17  1  0  0  0
 16 18  2  0  0  0
 16 37  1  0  0  0
 17 19  2  0  0  0
 18 38  1  0  0  0
 19 39  1  0  0  0
 20 21  1  0  0  0
 20 22  1  0  0  0
 20 40  1  0  0  0
 21 23  2  0  0  0
 21 27  1  0  0  0
 22 41  1  0  0  0
 22 42  1  0  0  0
 22 43  1  0  0  0
 23 24  1  0  0  0
 23 44  1  0  0  0
 24 25  2  0  0  0
 24 45  1  0  0  0
 25 26  1  0  0  0
 25 28  1  0  0  0
 26 27  2  0  0  0
 26 46  1  0  0  0
 27 47  1  0  0  0
M  CHG  1  13   1
M  END
> <chembl_id>
CHEMBL598158

> <chembl_pref_name>
None

> <s_m_source_file>
sdf/inactives_sanitized.sdf

> <i_m_source_file_index>
55

> <i_lp_mmshare_version>
49012

> <i_m_ct_stereo_status>
1

> <i_f3d_flags>
0

> <s_epik_input>
W2NIXTFbY0hdYyhGKVtjSF1bY0hdYzFbQ0BIXShbQ0gzXSlPYyhbY0hdMilbY0hdW2NIXVtjSF1jMi1jKFtjSF0zKVtjSF1bY0hdYyhjMzQpc2MoW2NIXTQpL0MoW05IMl0pPU4vW0hd

> <s_epik_cmdline>
J2VwaWtfcHl0aG9uJywgJy1waHQnLCAnMC41JywgJy1waCcsICc3LjUnLCAnLW50JywgJy1tYScsICcyMDAnLCAnLWltYWUnLCAnPGluZmlsZS5tYWU+JywgJy1vbWFlJywgJzxvdXRmaWxlLm1hZT4n

> <r_lp_tautomer_probability>
1

> <r_epik_Ionization_Penalty>
  0.0095

> <r_epik_Ionization_Penalty_Charging>
  0.0095

> <r_epik_Ionization_Penalty_Neutral>
  0.0000

> <r_epik_State_Penalty>
 -0.0000

> <r_epik_Charging_Adjusted_Penalty>
0.00945881282357717

> <i_epik_Tot_Q>
1

> <i_epik_Tot_abs_Q>
1

> <s_epik_Chemistry_Notes>
This compound has an imine and may undergo hydrolysis.

> <s_lp_Force_Field>
OPLS3e

> <r_lp_Energy>
32.723618

> <b_lp_Chiralities_Consistent>
1

> <s_lp_Variant>
sdf/inactives_sanitized.sdf:55-1

$$$$
sdf/inactives_sanitized.sdf:56
                    3D
 Schrodinger Suite 2020-1.
 53 56  0  0  1  0            999 V2000
   -0.0445    2.7904   -0.0627 C   0  0  0  0  0  0
   -0.7400    3.9942   -0.0705 C   0  0  0  0  0  0
   -2.1309    4.0224   -0.0477 C   0  0  0  0  0  0
   -0.7216    1.5624   -0.0313 C   0  0  0  0  0  0
   -2.1311    1.5539   -0.0056 C   0  0  0  0  0  0
   -2.8198    2.8019   -0.0154 C   0  0  0  0  0  0
   -4.5607    2.5783    0.0186 S   0  0  0  0  0  0
   -4.3741    0.8291    0.0356 C   0  0  0  0  0  0
   -3.0385    0.4561    0.0288 C   0  0  0  0  0  0
   -5.4736   -0.0072    0.0731 C   0  0  0  0  0  0
   -6.5746    0.3396   -0.5813 N   0  0  0  0  0  0
   -5.3866   -1.1405    0.7581 N   0  3  0  0  0  0
   -0.1317    0.3109   -0.0165 O   0  0  0  0  0  0
    1.2947    0.1800   -0.0842 C   0  0  2  0  0  0
    1.6186   -1.2795   -0.4606 C   0  0  0  0  0  0
    1.9492    0.5325    1.2583 C   0  0  0  0  0  0
    2.7427   -1.4591   -1.1897 N   0  0  0  0  0  0
    3.3085   -2.6641   -1.6435 C   0  0  0  0  0  0
    0.8598   -2.1864   -0.1101 O   0  0  0  0  0  0
    3.2462    1.0568    1.2723 C   0  0  0  0  0  0
    3.8648    1.3621    2.4814 C   0  0  0  0  0  0
    3.1892    1.1359    3.6783 C   0  0  0  0  0  0
    1.9017    0.6046    3.6770 C   0  0  0  0  0  0
    1.2828    0.2990    2.4681 C   0  0  0  0  0  0
    4.1421   -2.5799   -2.7595 C   0  0  0  0  0  0
    4.7557   -3.7238   -3.2619 C   0  0  0  0  0  0
    4.5568   -4.9629   -2.6531 C   0  0  0  0  0  0
    3.7298   -5.0447   -1.5220 C   0  0  0  0  0  0
    3.1129   -3.9035   -1.0170 C   0  0  0  0  0  0
    5.2086   -6.0406   -3.2215 O   0  0  0  0  0  0
    5.0479   -7.3324   -2.6452 C   0  0  0  0  0  0
    1.0339    2.8293   -0.0759 H   0  0  0  0  0  0
   -0.1896    4.9235   -0.0933 H   0  0  0  0  0  0
   -2.6609    4.9641   -0.0544 H   0  0  0  0  0  0
   -2.7105   -0.5731    0.0403 H   0  0  0  0  0  0
   -7.3835   -0.2638   -0.5632 H   0  0  0  0  0  0
   -6.5956    1.2068   -1.0982 H   0  0  0  0  0  0
   -6.1768   -1.7671    0.7984 H   0  0  0  0  0  0
    1.6842    0.8292   -0.8722 H   0  0  0  0  0  0
    3.2112   -0.6251   -1.5118 H   0  0  0  0  0  0
    3.7759    1.2289    0.3466 H   0  0  0  0  0  0
    4.8649    1.7697    2.4914 H   0  0  0  0  0  0
    3.6705    1.3706    4.6164 H   0  0  0  0  0  0
    1.3872    0.4265    4.6099 H   0  0  0  0  0  0
    0.2877   -0.1218    2.4747 H   0  0  0  0  0  0
    4.3148   -1.6315   -3.2481 H   0  0  0  0  0  0
    5.3926   -3.6473   -4.1312 H   0  0  0  0  0  0
    3.5582   -5.9834   -1.0178 H   0  0  0  0  0  0
    2.5035   -4.0010   -0.1316 H   0  0  0  0  0  0
    5.6260   -8.0568   -3.2187 H   0  0  0  0  0  0
    4.0052   -7.6531   -2.6662 H   0  0  0  0  0  0
    5.4113   -7.3600   -1.6168 H   0  0  0  0  0  0
   -4.5298   -1.3672    1.2418 H   0  0  0  0  0  0
  1  4  2  0  0  0
  1  2  1  0  0  0
  1 32  1  0  0  0
  2  3  2  0  0  0
  2 33  1  0  0  0
  3  6  1  0  0  0
  3 34  1  0  0  0
  4  5  1  0  0  0
  4 13  1  0  0  0
  5  9  1  0  0  0
  5  6  2  0  0  0
  6  7  1  0  0  0
  7  8  1  0  0  0
  8  9  2  0  0  0
  8 10  1  0  0  0
  9 35  1  0  0  0
 10 11  1  0  0  0
 10 12  2  0  0  0
 11 36  1  0  0  0
 11 37  1  0  0  0
 12 38  1  0  0  0
 12 53  1  0  0  0
 13 14  1  0  0  0
 14 15  1  0  0  0
 14 16  1  0  0  0
 14 39  1  0  0  0
 15 17  1  0  0  0
 15 19  2  0  0  0
 16 20  2  0  0  0
 16 24  1  0  0  0
 17 18  1  0  0  0
 17 40  1  0  0  0
 18 25  2  0  0  0
 18 29  1  0  0  0
 20 21  1  0  0  0
 20 41  1  0  0  0
 21 22  2  0  0  0
 21 42  1  0  0  0
 22 23  1  0  0  0
 22 43  1  0  0  0
 23 24  2  0  0  0
 23 44  1  0  0  0
 24 45  1  0  0  0
 25 26  1  0  0  0
 25 46  1  0  0  0
 26 27  2  0  0  0
 26 47  1  0  0  0
 27 28  1  0  0  0
 27 30  1  0  0  0
 28 29  2  0  0  0
 28 48  1  0  0  0
 29 49  1  0  0  0
 30 31  1  0  0  0
 31 50  1  0  0  0
 31 51  1  0  0  0
 31 52  1  0  0  0
M  CHG  1  12   1
M  END
> <chembl_id>
CHEMBL596948

> <chembl_pref_name>
None

> <s_m_source_file>
sdf/inactives_sanitized.sdf

> <i_m_source_file_index>
56

> <i_lp_mmshare_version>
49012

> <i_m_ct_stereo_status>
1

> <i_f3d_flags>
0

> <s_epik_input>
W0hdXE49QyhbTkgyXSlcYyhbY0hdMSlzYyhjMTIpW2NIXVtjSF1bY0hdYzJPW0NAQEhdKGMzW2NIXVtjSF1bY0hdW2NIXVtjSF0zKUMoPU8pW05IXWM0W2NIXVtjSF1jKFtjSF1bY0hdNClPW0NIM10=

> <s_epik_cmdline>
J2VwaWtfcHl0aG9uJywgJy1waHQnLCAnMC41JywgJy1waCcsICc3LjUnLCAnLW50JywgJy1tYScsICcyMDAnLCAnLWltYWUnLCAnPGluZmlsZS5tYWU+JywgJy1vbWFlJywgJzxvdXRmaWxlLm1hZT4n

> <r_lp_tautomer_probability>
1

> <r_epik_Ionization_Penalty>
  0.0095

> <r_epik_Ionization_Penalty_Charging>
  0.0095

> <r_epik_Ionization_Penalty_Neutral>
  0.0000

> <r_epik_State_Penalty>
 -0.0000

> <r_epik_Charging_Adjusted_Penalty>
0.00945881282357717

> <i_epik_Tot_Q>
1

> <i_epik_Tot_abs_Q>
1

> <s_epik_Chemistry_Notes>
This compound has an imine and may undergo hydrolysis.

> <s_lp_Force_Field>
OPLS3e

> <r_lp_Energy>
45.159731

> <b_lp_Chiralities_Consistent>
1

> <s_lp_Variant>
sdf/inactives_sanitized.sdf:56-1

$$$$
sdf/inactives_sanitized.sdf:57
                    3D
 Schrodinger Suite 2020-1.
 52 55  0  0  1  0            999 V2000
   -0.2265    3.1357   -0.0965 C   0  0  0  0  0  0
   -1.1449    4.1633    0.0874 C   0  0  0  0  0  0
   -2.4937    3.8944    0.2975 C   0  0  0  0  0  0
   -0.6290    1.7922   -0.0765 C   0  0  0  0  0  0
   -1.9880    1.4835    0.1362 C   0  0  0  0  0  0
   -2.9088    2.5556    0.3214 C   0  0  0  0  0  0
   -4.5435    1.9659    0.5709 S   0  0  0  0  0  0
   -4.0056    0.2975    0.4222 C   0  0  0  0  0  0
   -2.6387    0.2177    0.2026 C   0  0  0  0  0  0
   -4.8940   -0.7542    0.5438 C   0  0  0  0  0  0
   -6.1299   -0.6163    0.0809 N   0  0  0  0  0  0
   -4.4757   -1.8767    1.1146 N   0  3  0  0  0  0
    0.1975    0.6954   -0.2434 O   0  0  0  0  0  0
    1.5991    0.8730   -0.4885 C   0  0  2  0  0  0
    2.1566   -0.4594   -1.0241 C   0  0  0  0  0  0
    2.3408    1.2699    0.7950 C   0  0  0  0  0  0
    3.2088   -0.3735   -1.8598 N   0  0  0  0  0  0
    3.9331   -1.5113   -2.4257 C   0  0  0  0  0  0
    1.6506   -1.5313   -0.6833 O   0  0  0  0  0  0
    3.4948    2.0561    0.7063 C   0  0  0  0  0  0
    4.1941    2.4051    1.8584 C   0  0  0  0  0  0
    3.7438    1.9620    3.0997 C   0  0  0  0  0  0
    2.6031    1.1692    3.1990 C   0  0  0  0  0  0
    1.9038    0.8195    2.0473 C   0  0  0  0  0  0
    4.7929   -2.2559   -1.4106 C   0  0  0  0  0  0
    6.0405   -1.7414   -1.0459 C   0  0  0  0  0  0
    6.8401   -2.4331   -0.1399 C   0  0  0  0  0  0
    6.3945   -3.6422    0.3901 C   0  0  0  0  0  0
    5.1587   -4.1684    0.0193 C   0  0  0  0  0  0
    4.3594   -3.4777   -0.8878 C   0  0  0  0  0  0
    0.8079    3.4030   -0.2501 H   0  0  0  0  0  0
   -0.8039    5.1882    0.0682 H   0  0  0  0  0  0
   -3.1983    4.7011    0.4397 H   0  0  0  0  0  0
   -2.1105   -0.7174    0.0861 H   0  0  0  0  0  0
   -6.7860   -1.3791    0.1611 H   0  0  0  0  0  0
   -6.4070    0.2522   -0.3531 H   0  0  0  0  0  0
   -5.1080   -2.6571    1.2142 H   0  0  0  0  0  0
    1.7455    1.6346   -1.2583 H   0  0  0  0  0  0
    3.5847    0.5400   -2.0674 H   0  0  0  0  0  0
    3.2411   -2.1966   -2.9200 H   0  0  0  0  0  0
    4.5827   -1.1307   -3.2150 H   0  0  0  0  0  0
    3.8511    2.3971   -0.2549 H   0  0  0  0  0  0
    5.0831    3.0145    1.7899 H   0  0  0  0  0  0
    4.2869    2.2316    3.9935 H   0  0  0  0  0  0
    2.2647    0.8238    4.1648 H   0  0  0  0  0  0
    1.0254    0.1961    2.1306 H   0  0  0  0  0  0
    6.3880   -0.8054   -1.4592 H   0  0  0  0  0  0
    7.8017   -2.0351    0.1489 H   0  0  0  0  0  0
    7.0143   -4.1790    1.0932 H   0  0  0  0  0  0
    4.8226   -5.1079    0.4327 H   0  0  0  0  0  0
    3.4015   -3.8876   -1.1748 H   0  0  0  0  0  0
   -3.5271   -1.9413    1.4545 H   0  0  0  0  0  0
  1  2  2  0  0  0
  1  4  1  0  0  0
  1 31  1  0  0  0
  2  3  1  0  0  0
  2 32  1  0  0  0
  3  6  2  0  0  0
  3 33  1  0  0  0
  4  5  2  0  0  0
  4 13  1  0  0  0
  5  9  1  0  0  0
  5  6  1  0  0  0
  6  7  1  0  0  0
  7  8  1  0  0  0
  8  9  2  0  0  0
  8 10  1  0  0  0
  9 34  1  0  0  0
 10 11  1  0  0  0
 10 12  2  0  0  0
 11 35  1  0  0  0
 11 36  1  0  0  0
 12 37  1  0  0  0
 12 52  1  0  0  0
 13 14  1  0  0  0
 14 15  1  0  0  0
 14 16  1  0  0  0
 14 38  1  0  0  0
 15 17  1  0  0  0
 15 19  2  0  0  0
 16 20  2  0  0  0
 16 24  1  0  0  0
 17 18  1  0  0  0
 17 39  1  0  0  0
 18 25  1  0  0  0
 18 40  1  0  0  0
 18 41  1  0  0  0
 20 21  1  0  0  0
 20 42  1  0  0  0
 21 22  2  0  0  0
 21 43  1  0  0  0
 22 23  1  0  0  0
 22 44  1  0  0  0
 23 24  2  0  0  0
 23 45  1  0  0  0
 24 46  1  0  0  0
 25 26  2  0  0  0
 25 30  1  0  0  0
 26 27  1  0  0  0
 26 47  1  0  0  0
 27 28  2  0  0  0
 27 48  1  0  0  0
 28 29  1  0  0  0
 28 49  1  0  0  0
 29 30  2  0  0  0
 29 50  1  0  0  0
 30 51  1  0  0  0
M  CHG  1  12   1
M  END
> <chembl_id>
CHEMBL597554

> <chembl_pref_name>
None

> <s_m_source_file>
sdf/inactives_sanitized.sdf

> <i_m_source_file_index>
57

> <i_lp_mmshare_version>
49012

> <i_m_ct_stereo_status>
1

> <i_f3d_flags>
0

> <s_epik_input>
W0hdXE49QyhbTkgyXSlcYyhbY0hdMSlzYyhjMTIpW2NIXVtjSF1bY0hdYzJPW0NAQEhdKGMzW2NIXVtjSF1bY0hdW2NIXVtjSF0zKUMoPU8pW05IXVtDSDJdYzRbY0hdW2NIXVtjSF1bY0hdW2NIXTQ=

> <s_epik_cmdline>
J2VwaWtfcHl0aG9uJywgJy1waHQnLCAnMC41JywgJy1waCcsICc3LjUnLCAnLW50JywgJy1tYScsICcyMDAnLCAnLWltYWUnLCAnPGluZmlsZS5tYWU+JywgJy1vbWFlJywgJzxvdXRmaWxlLm1hZT4n

> <r_lp_tautomer_probability>
1

> <r_epik_Ionization_Penalty>
  0.0095

> <r_epik_Ionization_Penalty_Charging>
  0.0095

> <r_epik_Ionization_Penalty_Neutral>
  0.0000

> <r_epik_State_Penalty>
 -0.0000

> <r_epik_Charging_Adjusted_Penalty>
0.00945881282357717

> <i_epik_Tot_Q>
1

> <i_epik_Tot_abs_Q>
1

> <s_epik_Chemistry_Notes>
This compound has an imine and may undergo hydrolysis.

> <s_lp_Force_Field>
OPLS3e

> <r_lp_Energy>
36.516204

> <b_lp_Chiralities_Consistent>
1

> <s_lp_Variant>
sdf/inactives_sanitized.sdf:57-1

$$$$
sdf/inactives_sanitized.sdf:58
                    3D
 Schrodinger Suite 2020-1.
 65 69  0  0  1  0            999 V2000
   -3.0654    0.4079   -1.0030 C   0  0  0  0  0  0
   -4.4388    0.5280   -1.1828 C   0  0  0  0  0  0
   -5.1295   -0.3221   -2.0407 C   0  0  0  0  0  0
   -2.3289   -0.5754   -1.6801 C   0  0  0  0  0  0
   -2.9974   -1.4551   -2.5559 C   0  0  0  0  0  0
   -4.4056   -1.3099   -2.7228 C   0  0  0  0  0  0
   -5.0466   -2.4926   -3.8509 S   0  0  0  0  0  0
   -3.4478   -3.1850   -4.0936 C   0  0  0  0  0  0
   -2.4843   -2.5233   -3.3471 C   0  0  0  0  0  0
   -3.2509   -4.2448   -4.9589 C   0  0  0  0  0  0
   -4.1883   -5.1779   -5.0659 N   0  0  0  0  0  0
   -2.1198   -4.2987   -5.6506 N   0  3  0  0  0  0
   -0.9654   -0.7858   -1.5723 O   0  0  0  0  0  0
   -0.1700    0.0343   -0.7052 C   0  0  2  0  0  0
    1.3117   -0.1787   -1.0745 C   0  0  0  0  0  0
   -0.3997   -0.3336    0.7668 C   0  0  0  0  0  0
    2.1245    0.8784   -0.8524 N   0  0  0  0  0  0
    3.5150    0.9783   -1.0419 C   0  0  0  0  0  0
    1.6767   -1.2557   -1.5516 O   0  0  0  0  0  0
   -0.2775    0.6545    1.7497 C   0  0  0  0  0  0
   -0.4628    0.3330    3.0916 C   0  0  0  0  0  0
   -0.7625   -0.9787    3.4519 C   0  0  0  0  0  0
   -0.8747   -1.9729    2.4829 C   0  0  0  0  0  0
   -0.6893   -1.6520    1.1411 C   0  0  0  0  0  0
    4.0316    2.2716   -1.1514 C   0  0  0  0  0  0
    5.3986    2.4691   -1.3233 C   0  0  0  0  0  0
    6.2571    1.3682   -1.3851 C   0  0  0  0  0  0
    5.7514    0.0728   -1.2507 C   0  0  0  0  0  0
    4.3841   -0.1238   -1.0793 C   0  0  0  0  0  0
    7.6490    1.5597   -1.5376 N   0  0  0  0  0  0
    8.3963    2.2576   -2.4874 C   0  0  0  0  0  0
    9.6909    2.2328   -2.2358 N   0  0  0  0  0  0
    9.8247    1.5086   -1.1434 C   0  0  0  0  0  0
    8.6025    1.0622   -0.6793 C   0  0  0  0  0  0
    7.7562    2.8812   -3.6601 C   0  0  0  0  0  0
    8.5712    3.8168   -4.2056 O   0  0  0  0  0  0
    6.6254    2.6119   -4.0728 O   0  0  0  0  0  0
    8.1638    4.5647   -5.3438 C   0  0  0  0  0  0
    9.2843    5.5285   -5.7460 C   0  0  0  0  0  0
   -2.5830    1.0921   -0.3218 H   0  0  0  0  0  0
   -4.9783    1.2947   -0.6458 H   0  0  0  0  0  0
   -6.1969   -0.2195   -2.1730 H   0  0  0  0  0  0
   -1.4382   -2.7927   -3.3572 H   0  0  0  0  0  0
   -4.0560   -5.9553   -5.6958 H   0  0  0  0  0  0
   -5.0312   -5.1048   -4.5149 H   0  0  0  0  0  0
   -1.9542   -5.0646   -6.2868 H   0  0  0  0  0  0
   -0.4139    1.0864   -0.8719 H   0  0  0  0  0  0
    1.6787    1.7361   -0.5616 H   0  0  0  0  0  0
   -0.0400    1.6721    1.4754 H   0  0  0  0  0  0
   -0.3720    1.0966    3.8501 H   0  0  0  0  0  0
   -0.9049   -1.2284    4.4930 H   0  0  0  0  0  0
   -1.1009   -2.9890    2.7708 H   0  0  0  0  0  0
   -0.7685   -2.4291    0.3948 H   0  0  0  0  0  0
    3.3780    3.1314   -1.1076 H   0  0  0  0  0  0
    5.7853    3.4749   -1.4063 H   0  0  0  0  0  0
    6.4115   -0.7824   -1.2784 H   0  0  0  0  0  0
    4.0279   -1.1352   -0.9609 H   0  0  0  0  0  0
   10.7900    1.3136   -0.6998 H   0  0  0  0  0  0
    8.3281    0.4639    0.1777 H   0  0  0  0  0  0
    7.9370    3.8914   -6.1720 H   0  0  0  0  0  0
    7.2554    5.1246   -5.1157 H   0  0  0  0  0  0
    8.9932    6.1202   -6.6137 H   0  0  0  0  0  0
   10.1963    4.9883   -6.0022 H   0  0  0  0  0  0
    9.5192    6.2196   -4.9360 H   0  0  0  0  0  0
   -1.4315   -3.5682   -5.5411 H   0  0  0  0  0  0
  1  4  2  0  0  0
  1  2  1  0  0  0
  1 40  1  0  0  0
  2  3  2  0  0  0
  2 41  1  0  0  0
  3  6  1  0  0  0
  3 42  1  0  0  0
  4 13  1  0  0  0
  4  5  1  0  0  0
  5  9  1  0  0  0
  5  6  2  0  0  0
  6  7  1  0  0  0
  7  8  1  0  0  0
  8 10  1  0  0  0
  8  9  2  0  0  0
  9 43  1  0  0  0
 10 11  1  0  0  0
 10 12  2  0  0  0
 11 44  1  0  0  0
 11 45  1  0  0  0
 12 46  1  0  0  0
 12 65  1  0  0  0
 13 14  1  0  0  0
 14 15  1  0  0  0
 14 16  1  0  0  0
 14 47  1  0  0  0
 15 19  2  0  0  0
 15 17  1  0  0  0
 16 20  2  0  0  0
 16 24  1  0  0  0
 17 18  1  0  0  0
 17 48  1  0  0  0
 18 25  2  0  0  0
 18 29  1  0  0  0
 20 21  1  0  0  0
 20 49  1  0  0  0
 21 22  2  0  0  0
 21 50  1  0  0  0
 22 23  1  0  0  0
 22 51  1  0  0  0
 23 24  2  0  0  0
 23 52  1  0  0  0
 24 53  1  0  0  0
 25 26  1  0  0  0
 25 54  1  0  0  0
 26 27  2  0  0  0
 26 55  1  0  0  0
 27 28  1  0  0  0
 27 30  1  0  0  0
 28 29  2  0  0  0
 28 56  1  0  0  0
 29 57  1  0  0  0
 30 31  1  0  0  0
 30 34  1  0  0  0
 31 32  2  0  0  0
 31 35  1  0  0  0
 32 33  1  0  0  0
 33 34  2  0  0  0
 33 58  1  0  0  0
 34 59  1  0  0  0
 35 36  1  0  0  0
 35 37  2  0  0  0
 36 38  1  0  0  0
 38 39  1  0  0  0
 38 60  1  0  0  0
 38 61  1  0  0  0
 39 62  1  0  0  0
 39 63  1  0  0  0
 39 64  1  0  0  0
M  CHG  1  12   1
M  END
> <chembl_id>
CHEMBL604500

> <chembl_pref_name>
None

> <s_m_source_file>
sdf/inactives_sanitized.sdf

> <i_m_source_file_index>
58

> <i_lp_mmshare_version>
49012

> <i_m_ct_stereo_status>
1

> <i_f3d_flags>
0

> <s_epik_input>
W0hdXE49QyhbTkgyXSlcYyhbY0hdMSlzYyhjMTIpW2NIXVtjSF1bY0hdYzJPW0NAQEhdKGMzW2NIXVtjSF1bY0hdW2NIXVtjSF0zKUMoPU8pW05IXWM0W2NIXVtjSF1jKFtjSF1bY0hdNCktbjVjKG5bY0hdW2NIXTUpQyg9TylPW0NIMl1bQ0gzXQ==

> <s_epik_cmdline>
J2VwaWtfcHl0aG9uJywgJy1waHQnLCAnMC41JywgJy1waCcsICc3LjUnLCAnLW50JywgJy1tYScsICcyMDAnLCAnLWltYWUnLCAnPGluZmlsZS5tYWU+JywgJy1vbWFlJywgJzxvdXRmaWxlLm1hZT4n

> <r_lp_tautomer_probability>
1

> <r_epik_Ionization_Penalty>
  0.0099

> <r_epik_Ionization_Penalty_Charging>
  0.0099

> <r_epik_Ionization_Penalty_Neutral>
  0.0000

> <r_epik_State_Penalty>
 -0.0000

> <r_epik_Charging_Adjusted_Penalty>
0.0099292541793173

> <i_epik_Tot_Q>
1

> <i_epik_Tot_abs_Q>
1

> <s_epik_Chemistry_Notes>
This compound has an ester and may undergo hydrolysis at high or low pH. This compound has an imine and may undergo hydrolysis.

> <s_lp_Force_Field>
OPLS3e

> <r_lp_Energy>
53.306867

> <b_lp_Chiralities_Consistent>
1

> <s_lp_Variant>
sdf/inactives_sanitized.sdf:58-1

$$$$
sdf/inactives_sanitized.sdf:59
                    3D
 Schrodinger Suite 2020-1.
 39 41  0  0  1  0            999 V2000
    0.1226    2.6738   -0.1186 C   0  0  0  0  0  0
   -0.5229    3.9044   -0.1612 C   0  0  0  0  0  0
   -1.9115    3.9889   -0.1527 C   0  0  0  0  0  0
   -0.6039    1.4750   -0.0646 C   0  0  0  0  0  0
   -2.0131    1.5246   -0.0591 C   0  0  0  0  0  0
   -2.6493    2.7980   -0.1021 C   0  0  0  0  0  0
   -4.3964    2.6447   -0.0814 S   0  0  0  0  0  0
   -4.2911    0.8846   -0.0210 C   0  0  0  0  0  0
   -2.9654    0.4658   -0.0147 C   0  0  0  0  0  0
   -5.4294    0.0846    0.0160 C   0  0  0  0  0  0
   -6.6338    0.6416   -0.0263 N   0  0  0  0  0  0
   -5.2891   -1.2335    0.0920 N   0  3  0  0  0  0
   -0.0642    0.2011   -0.0202 O   0  0  0  0  0  0
    1.3556    0.0123    0.0453 C   0  0  2  0  0  0
    1.6477   -1.4737   -0.2428 C   0  0  0  0  0  0
    1.9067    0.4317    1.4121 C   0  0  0  0  0  0
    1.1626    0.2146    2.5774 C   0  0  0  0  0  0
    1.6688    0.6093    3.8127 C   0  0  0  0  0  0
    2.9195    1.2187    3.8827 C   0  0  0  0  0  0
    3.6688    1.4359    2.7285 C   0  0  0  0  0  0
    3.1624    1.0417    1.4928 C   0  0  0  0  0  0
    1.3197   -1.8041   -1.5776 O   0  0  0  0  0  0
    1.2017    2.6693   -0.1265 H   0  0  0  0  0  0
    0.0650    4.8098   -0.2016 H   0  0  0  0  0  0
   -2.4028    4.9506   -0.1855 H   0  0  0  0  0  0
   -2.6700   -0.5724    0.0204 H   0  0  0  0  0  0
   -7.4594    0.0616    0.0019 H   0  0  0  0  0  0
   -6.7168    1.6461   -0.0858 H   0  0  0  0  0  0
   -4.3645   -1.6378    0.1185 H   0  0  0  0  0  0
    1.8316    0.6074   -0.7377 H   0  0  0  0  0  0
    2.7061   -1.6922   -0.0943 H   0  0  0  0  0  0
    1.0909   -2.1216    0.4355 H   0  0  0  0  0  0
    0.1930   -0.2591    2.5282 H   0  0  0  0  0  0
    1.0947    0.4438    4.7124 H   0  0  0  0  0  0
    3.3122    1.5247    4.8412 H   0  0  0  0  0  0
    4.6381    1.9082    2.7919 H   0  0  0  0  0  0
    3.7464    1.2124    0.5999 H   0  0  0  0  0  0
    1.5109   -2.7344   -1.7185 H   0  0  0  0  0  0
   -6.1058   -1.8260    0.1146 H   0  0  0  0  0  0
  1  2  2  0  0  0
  1  4  1  0  0  0
  1 23  1  0  0  0
  2  3  1  0  0  0
  2 24  1  0  0  0
  3  6  2  0  0  0
  3 25  1  0  0  0
  4 13  1  0  0  0
  4  5  2  0  0  0
  5  6  1  0  0  0
  5  9  1  0  0  0
  6  7  1  0  0  0
  7  8  1  0  0  0
  8  9  2  0  0  0
  8 10  1  0  0  0
  9 26  1  0  0  0
 10 11  1  0  0  0
 10 12  2  0  0  0
 11 27  1  0  0  0
 11 28  1  0  0  0
 12 29  1  0  0  0
 12 39  1  0  0  0
 13 14  1  0  0  0
 14 15  1  0  0  0
 14 16  1  0  0  0
 14 30  1  0  0  0
 15 22  1  0  0  0
 15 31  1  0  0  0
 15 32  1  0  0  0
 16 17  2  0  0  0
 16 21  1  0  0  0
 17 18  1  0  0  0
 17 33  1  0  0  0
 18 19  2  0  0  0
 18 34  1  0  0  0
 19 20  1  0  0  0
 19 35  1  0  0  0
 20 21  2  0  0  0
 20 36  1  0  0  0
 21 37  1  0  0  0
 22 38  1  0  0  0
M  CHG  1  12   1
M  END
> <chembl_id>
CHEMBL597571

> <chembl_pref_name>
None

> <s_m_source_file>
sdf/inactives_sanitized.sdf

> <i_m_source_file_index>
59

> <i_lp_mmshare_version>
49012

> <i_m_ct_stereo_status>
1

> <i_f3d_flags>
0

> <s_epik_input>
W0hdL049QyhbTkgyXSlcYyhbY0hdMSlzYyhjMTIpW2NIXVtjSF1bY0hdYzJPW0NASF0oW0NIMl1bT0hdKWMzW2NIXVtjSF1bY0hdW2NIXVtjSF0z

> <s_epik_cmdline>
J2VwaWtfcHl0aG9uJywgJy1waHQnLCAnMC41JywgJy1waCcsICc3LjUnLCAnLW50JywgJy1tYScsICcyMDAnLCAnLWltYWUnLCAnPGluZmlsZS5tYWU+JywgJy1vbWFlJywgJzxvdXRmaWxlLm1hZT4n

> <r_lp_tautomer_probability>
1

> <r_epik_Ionization_Penalty>
  0.0095

> <r_epik_Ionization_Penalty_Charging>
  0.0095

> <r_epik_Ionization_Penalty_Neutral>
  0.0000

> <r_epik_State_Penalty>
 -0.0000

> <r_epik_Charging_Adjusted_Penalty>
0.00945881282357717

> <i_epik_Tot_Q>
1

> <i_epik_Tot_abs_Q>
1

> <s_epik_Chemistry_Notes>
This compound has an imine and may undergo hydrolysis.

> <s_lp_Force_Field>
OPLS3e

> <r_lp_Energy>
24.331008

> <b_lp_Chiralities_Consistent>
1

> <s_lp_Variant>
sdf/inactives_sanitized.sdf:59-1

$$$$
sdf/inactives_sanitized.sdf:60
                    3D
 Schrodinger Suite 2020-1.
 45 48  0  0  1  0            999 V2000
   -0.0773    0.1371    0.0679 O   0  0  0  0  0  0
   -0.8417    1.3319   -0.0632 C   0  0  0  0  0  0
   -2.3178    0.9728   -0.0641 C   0  0  0  0  0  0
   -3.0028    0.8293   -1.2736 C   0  0  0  0  0  0
   -5.0158    0.2971   -0.0595 C   0  0  0  0  0  0
   -4.3358    0.4363    1.1495 C   0  0  0  0  0  0
   -4.3538    0.4919   -1.2709 C   0  0  0  0  0  0
   -2.9848    0.7735    1.1473 C   0  0  0  0  0  0
    4.2077    2.6830   -0.0378 C   0  0  0  0  0  0
    5.3459    2.7734   -0.8446 C   0  0  0  0  0  0
    6.0901    3.9454   -0.9415 C   0  0  0  0  0  0
    3.7976    3.8033    0.6975 C   0  0  0  0  0  0
    4.5211    5.0064    0.6308 C   0  0  0  0  0  0
    5.6730    5.0580   -0.2009 C   0  0  0  0  0  0
    6.4328    6.6394   -0.1492 S   0  0  0  0  0  0
    5.2229    7.2249    0.9872 C   0  0  0  0  0  0
    4.2865    6.2459    1.2883 C   0  0  0  0  0  0
    5.2562    8.5239    1.4598 C   0  0  0  0  0  0
    6.4289    9.1068    1.6745 N   0  0  0  0  0  0
    4.1074    9.1460    1.6921 N   0  3  0  0  0  0
    3.4396    1.4078    0.0429 C   0  0  0  0  0  0
    4.1019    0.1780    0.1535 C   0  0  0  0  0  0
    1.9936   -0.9927    0.2064 C   0  0  0  0  0  0
    1.3017    0.2137    0.0935 C   0  0  0  0  0  0
    3.3857   -1.0142    0.2354 C   0  0  0  0  0  0
    2.0372    1.4092    0.0131 C   0  0  0  0  0  0
   -6.6903   -0.1218   -0.0567 Cl  0  0  0  0  0  0
   -0.6379    2.0168    0.7624 H   0  0  0  0  0  0
   -0.5870    1.8539   -0.9881 H   0  0  0  0  0  0
   -2.4915    0.9756   -2.2142 H   0  0  0  0  0  0
   -4.8513    0.2822    2.0862 H   0  0  0  0  0  0
   -4.8833    0.3806   -2.2059 H   0  0  0  0  0  0
   -2.4583    0.8771    2.0850 H   0  0  0  0  0  0
    5.6643    1.9155   -1.4195 H   0  0  0  0  0  0
    6.9658    3.9897   -1.5728 H   0  0  0  0  0  0
    2.9234    3.7398    1.3290 H   0  0  0  0  0  0
    3.4588    6.4043    1.9635 H   0  0  0  0  0  0
    6.4648   10.0553    2.0179 H   0  0  0  0  0  0
    7.2813    8.5978    1.4909 H   0  0  0  0  0  0
    4.1095   10.0939    2.0390 H   0  0  0  0  0  0
    5.1811    0.1398    0.1846 H   0  0  0  0  0  0
    1.4467   -1.9222    0.2709 H   0  0  0  0  0  0
    3.9095   -1.9546    0.3233 H   0  0  0  0  0  0
    1.5255    2.3551   -0.0797 H   0  0  0  0  0  0
    3.2352    8.6710    1.5115 H   0  0  0  0  0  0
  1  2  1  0  0  0
  1 24  1  0  0  0
  2  3  1  0  0  0
  2 28  1  0  0  0
  2 29  1  0  0  0
  3  8  2  0  0  0
  3  4  1  0  0  0
  4  7  2  0  0  0
  4 30  1  0  0  0
  5  7  1  0  0  0
  5  6  2  0  0  0
  5 27  1  0  0  0
  6  8  1  0  0  0
  6 31  1  0  0  0
  7 32  1  0  0  0
  8 33  1  0  0  0
  9 10  2  0  0  0
  9 21  1  0  0  0
  9 12  1  0  0  0
 10 11  1  0  0  0
 10 34  1  0  0  0
 11 14  2  0  0  0
 11 35  1  0  0  0
 12 13  2  0  0  0
 12 36  1  0  0  0
 13 17  1  0  0  0
 13 14  1  0  0  0
 14 15  1  0  0  0
 15 16  1  0  0  0
 16 17  2  0  0  0
 16 18  1  0  0  0
 17 37  1  0  0  0
 18 19  1  0  0  0
 18 20  2  0  0  0
 19 38  1  0  0  0
 19 39  1  0  0  0
 20 40  1  0  0  0
 20 45  1  0  0  0
 21 22  2  0  0  0
 21 26  1  0  0  0
 22 25  1  0  0  0
 22 41  1  0  0  0
 23 24  1  0  0  0
 23 25  2  0  0  0
 23 42  1  0  0  0
 24 26  2  0  0  0
 25 43  1  0  0  0
 26 44  1  0  0  0
M  CHG  1  20   1
M  END
> <chembl_id>
CHEMBL597575

> <chembl_pref_name>
None

> <s_m_source_file>
sdf/inactives_sanitized.sdf

> <i_m_source_file_index>
60

> <i_lp_mmshare_version>
49012

> <i_m_ct_stereo_status>
1

> <i_f3d_flags>
0

> <s_epik_input>
W2NIXTFbY0hdYyhDbClbY0hdW2NIXWMxW0NIMl1PYyhbY0hdMilbY0hdW2NIXVtjSF1jMi1jKFtjSF0zKVtjSF1bY0hdYyhjMzQpc2MoW2NIXTQpL0MoW05IMl0pPU4vW0hd

> <s_epik_cmdline>
J2VwaWtfcHl0aG9uJywgJy1waHQnLCAnMC41JywgJy1waCcsICc3LjUnLCAnLW50JywgJy1tYScsICcyMDAnLCAnLWltYWUnLCAnPGluZmlsZS5tYWU+JywgJy1vbWFlJywgJzxvdXRmaWxlLm1hZT4n

> <r_lp_tautomer_probability>
1

> <r_epik_Ionization_Penalty>
  0.0095

> <r_epik_Ionization_Penalty_Charging>
  0.0095

> <r_epik_Ionization_Penalty_Neutral>
  0.0000

> <r_epik_State_Penalty>
 -0.0000

> <r_epik_Charging_Adjusted_Penalty>
0.00945881282357717

> <i_epik_Tot_Q>
1

> <i_epik_Tot_abs_Q>
1

> <s_epik_Chemistry_Notes>
This compound has an imine and may undergo hydrolysis.

> <s_lp_Force_Field>
OPLS3e

> <r_lp_Energy>
32.137061

> <b_lp_Chiralities_Consistent>
1

> <s_lp_Variant>
sdf/inactives_sanitized.sdf:60-1

$$$$
sdf/inactives_sanitized.sdf:61
                    3D
 Schrodinger Suite 2020-1.
 34 36  0  0  1  0            999 V2000
   -2.2117    1.3064   -0.1073 C   0  0  0  0  0  0
   -2.8630    0.1122    0.3099 C   0  0  0  0  0  0
   -4.2775    0.2607    0.3375 C   0  0  0  0  0  0
   -4.7149    1.5228   -0.0384 C   0  0  0  0  0  0
   -3.3699    2.5776   -0.4596 S   0  0  0  0  0  0
   -2.0701   -1.0028    0.6253 C   0  0  0  0  0  0
   -0.6826   -0.9111    0.5272 C   0  0  0  0  0  0
   -0.0464    0.2610    0.1234 C   0  0  0  0  0  0
   -0.8147    1.3888   -0.2036 C   0  0  0  0  0  0
   -6.0226    1.9651   -0.1196 C   0  0  0  0  0  0
   -6.9648    1.1032   -0.4809 N   0  3  0  0  0  0
   -6.2995    3.2297    0.1726 N   0  0  0  0  0  0
    1.3341    0.2216    0.0768 O   0  0  0  0  0  0
    2.0593    1.3935   -0.2932 C   0  0  0  0  0  0
    4.4463    1.6388   -1.1248 C   0  0  0  0  0  0
    3.5542    1.1411   -0.1682 C   0  0  0  0  0  0
    4.0824    0.4244    0.9131 C   0  0  0  0  0  0
    5.4612    0.2229    1.0024 C   0  0  0  0  0  0
    6.2772    0.7516    0.0010 C   0  0  0  0  0  0
    5.7897    1.4531   -1.0541 N   0  0  0  0  0  0
   -4.9456   -0.5359    0.6305 H   0  0  0  0  0  0
   -2.5246   -1.9290    0.9452 H   0  0  0  0  0  0
   -0.0841   -1.7760    0.7760 H   0  0  0  0  0  0
   -0.3544    2.3114   -0.5235 H   0  0  0  0  0  0
   -6.7141    0.1501   -0.6991 H   0  0  0  0  0  0
   -7.2499    3.5644    0.1130 H   0  0  0  0  0  0
   -5.5552    3.8535    0.4488 H   0  0  0  0  0  0
    1.8118    1.6700   -1.3202 H   0  0  0  0  0  0
    1.8023    2.2323    0.3559 H   0  0  0  0  0  0
    4.0910    2.2041   -1.9742 H   0  0  0  0  0  0
    3.4327    0.0271    1.6794 H   0  0  0  0  0  0
    5.8861   -0.3280    1.8285 H   0  0  0  0  0  0
    7.3482    0.6171    0.0363 H   0  0  0  0  0  0
   -7.9258    1.4054   -0.5444 H   0  0  0  0  0  0
  1  2  2  0  0  0
  1  5  1  0  0  0
  1  9  1  0  0  0
  2  3  1  0  0  0
  2  6  1  0  0  0
  3  4  2  0  0  0
  3 21  1  0  0  0
  4  5  1  0  0  0
  4 10  1  0  0  0
  6  7  2  0  0  0
  6 22  1  0  0  0
  7  8  1  0  0  0
  7 23  1  0  0  0
  8  9  2  0  0  0
  8 13  1  0  0  0
  9 24  1  0  0  0
 10 11  2  0  0  0
 10 12  1  0  0  0
 11 25  1  0  0  0
 11 34  1  0  0  0
 12 26  1  0  0  0
 12 27  1  0  0  0
 13 14  1  0  0  0
 14 16  1  0  0  0
 14 28  1  0  0  0
 14 29  1  0  0  0
 15 16  2  0  0  0
 15 20  1  0  0  0
 15 30  1  0  0  0
 16 17  1  0  0  0
 17 18  2  0  0  0
 17 31  1  0  0  0
 18 19  1  0  0  0
 18 32  1  0  0  0
 19 20  2  0  0  0
 19 33  1  0  0  0
M  CHG  1  11   1
M  END
> <chembl_id>
CHEMBL597887

> <chembl_pref_name>
None

> <s_m_source_file>
sdf/inactives_sanitized.sdf

> <i_m_source_file_index>
61

> <i_lp_mmshare_version>
49012

> <i_m_ct_stereo_status>
1

> <i_f3d_flags>
0

> <s_epik_input>
W0hdL049QyhbTkgyXSlcYyhzMSlbY0hdYyhjMTIpW2NIXVtjSF1jKFtjSF0yKU9bQ0gyXWMzW2NIXW5bY0hdW2NIXVtjSF0z

> <s_epik_cmdline>
J2VwaWtfcHl0aG9uJywgJy1waHQnLCAnMC41JywgJy1waCcsICc3LjUnLCAnLW50JywgJy1tYScsICcyMDAnLCAnLWltYWUnLCAnPGluZmlsZS5tYWU+JywgJy1vbWFlJywgJzxvdXRmaWxlLm1hZT4n

> <r_lp_tautomer_probability>
1

> <r_epik_Ionization_Penalty>
  0.0110

> <r_epik_Ionization_Penalty_Charging>
  0.0095

> <r_epik_Ionization_Penalty_Neutral>
  0.0015

> <r_epik_State_Penalty>
 -0.0000

> <r_epik_Charging_Adjusted_Penalty>
0.00945881282357717

> <i_epik_Tot_Q>
1

> <i_epik_Tot_abs_Q>
1

> <s_epik_Chemistry_Notes>
This compound has an imine and may undergo hydrolysis.

> <s_lp_Force_Field>
OPLS3e

> <r_lp_Energy>
25.001151

> <b_lp_Chiralities_Consistent>
1

> <s_lp_Variant>
sdf/inactives_sanitized.sdf:61-1

$$$$
sdf/inactives_sanitized.sdf:62
                    3D
 Schrodinger Suite 2020-1.
 58 62  0  0  1  0            999 V2000
    7.5963    0.8601   -0.2586 C   0  0  0  0  0  0
    8.6113    1.7967   -0.1317 N   0  0  0  0  0  0
    9.8252    1.2581   -0.3483 N   0  0  0  0  0  0
    9.6336   -0.0178   -0.6008 C   0  0  0  0  0  0
    8.2690   -0.3208   -0.5554 C   0  0  0  0  0  0
    6.1871    1.0682   -0.0134 C   0  0  0  0  0  0
    9.1895    5.1073    1.4361 C   0  0  0  0  0  0
   -0.2138    0.0111   -0.4802 N   0  0  0  0  0  0
   -1.0482   -0.9792    0.0136 C   0  0  0  0  0  0
   10.8115   -0.9304   -0.8885 C   0  0  0  0  0  0
    9.2803    7.2740    2.1206 N   0  0  0  0  0  0
    9.7288    6.0601    2.3511 C   0  0  0  0  0  0
    8.5333    3.1824    0.1354 C   0  0  0  0  0  0
    9.2853    3.7279    1.1886 C   0  0  0  0  0  0
    1.1935    0.0655   -0.5069 C   0  0  0  0  0  0
   -2.3233   -0.6913   -0.1393 N   0  0  0  0  0  0
    5.3866    0.2021   -0.6695 N   0  0  0  0  0  0
    8.4067    7.1926    1.0267 O   0  0  0  0  0  0
    1.9336   -0.1260    0.6649 C   0  0  0  0  0  0
    8.3561    5.8908    0.6225 C   0  0  0  0  0  0
    3.9893    0.1845   -0.5789 C   0  0  0  0  0  0
    3.3274   -0.0785    0.6318 C   0  0  0  0  0  0
   -2.3493    0.4799   -0.7440 C   0  0  0  0  0  0
   -1.0740    0.9542   -0.9884 C   0  0  0  0  0  0
   -0.5733   -2.2965    0.6147 C   0  0  0  0  0  0
    5.7861    1.9596    0.7383 O   0  0  0  0  0  0
    7.7128    3.9946   -0.6616 C   0  0  0  0  0  0
    1.8554    0.3206   -1.7129 C   0  0  0  0  0  0
    3.2489    0.3669   -1.7502 C   0  0  0  0  0  0
    7.6054    5.3671   -0.4345 C   0  0  0  0  0  0
   10.4340   -2.2074   -0.9524 F   0  0  0  0  0  0
   11.3833   -0.6211   -2.0520 F   0  0  0  0  0  0
   11.7424   -0.8361    0.0618 F   0  0  0  0  0  0
   10.6065    5.7686    3.3546 N   0  0  0  0  0  0
   -0.6448   -3.4020   -0.3456 N   0  0  0  0  0  0
    4.0221   -0.2982    1.7736 F   0  0  0  0  0  0
    0.4167   -3.3149   -1.3471 C   0  0  0  0  0  0
   -0.5448   -4.6815    0.3503 C   0  0  0  0  0  0
    7.8279   -1.2955   -0.7073 H   0  0  0  0  0  0
    9.9180    3.1018    1.8016 H   0  0  0  0  0  0
    5.8082   -0.4535   -1.3111 H   0  0  0  0  0  0
    1.4340   -0.3109    1.6052 H   0  0  0  0  0  0
   -3.2764    0.9699   -1.0029 H   0  0  0  0  0  0
   -0.7088    1.8570   -1.4562 H   0  0  0  0  0  0
    0.4313   -2.2376    1.0320 H   0  0  0  0  0  0
   -1.2196   -2.5309    1.4629 H   0  0  0  0  0  0
    7.1468    3.5583   -1.4725 H   0  0  0  0  0  0
    1.2956    0.4682   -2.6255 H   0  0  0  0  0  0
    3.7477    0.5514   -2.6911 H   0  0  0  0  0  0
    6.9726    5.9930   -1.0463 H   0  0  0  0  0  0
   10.9328    4.8269    3.5163 H   0  0  0  0  0  0
   10.9552    6.4856    3.9742 H   0  0  0  0  0  0
    0.3581   -4.1503   -2.0462 H   0  0  0  0  0  0
    1.4070   -3.3240   -0.8880 H   0  0  0  0  0  0
    0.3227   -2.4010   -1.9338 H   0  0  0  0  0  0
   -0.6183   -5.5114   -0.3538 H   0  0  0  0  0  0
   -1.3578   -4.7938    1.0687 H   0  0  0  0  0  0
    0.4001   -4.7749    0.8886 H   0  0  0  0  0  0
  1  2  1  0  0  0
  1  5  2  0  0  0
  1  6  1  0  0  0
  2  3  1  0  0  0
  2 13  1  0  0  0
  3  4  2  0  0  0
  4  5  1  0  0  0
  4 10  1  0  0  0
  5 39  1  0  0  0
  6 17  1  0  0  0
  6 26  2  0  0  0
  7 12  1  0  0  0
  7 14  2  0  0  0
  7 20  1  0  0  0
  8  9  1  0  0  0
  8 15  1  0  0  0
  8 24  1  0  0  0
  9 16  2  0  0  0
  9 25  1  0  0  0
 10 31  1  0  0  0
 10 32  1  0  0  0
 10 33  1  0  0  0
 11 12  2  0  0  0
 11 18  1  0  0  0
 12 34  1  0  0  0
 13 14  1  0  0  0
 13 27  2  0  0  0
 14 40  1  0  0  0
 15 19  2  0  0  0
 15 28  1  0  0  0
 16 23  1  0  0  0
 17 21  1  0  0  0
 17 41  1  0  0  0
 18 20  1  0  0  0
 19 22  1  0  0  0
 19 42  1  0  0  0
 20 30  2  0  0  0
 21 22  2  0  0  0
 21 29  1  0  0  0
 22 36  1  0  0  0
 23 24  2  0  0  0
 23 43  1  0  0  0
 24 44  1  0  0  0
 25 35  1  0  0  0
 25 45  1  0  0  0
 25 46  1  0  0  0
 27 30  1  0  0  0
 27 47  1  0  0  0
 28 29  2  0  0  0
 28 48  1  0  0  0
 29 49  1  0  0  0
 30 50  1  0  0  0
 34 51  1  0  0  0
 34 52  1  0  0  0
 35 37  1  0  0  0
 35 38  1  0  0  0
 37 53  1  0  0  0
 37 54  1  0  0  0
 37 55  1  0  0  0
 38 56  1  0  0  0
 38 57  1  0  0  0
 38 58  1  0  0  0
M  END
> <chembl_id>
CHEMBL206335

> <chembl_pref_name>
RAZAXABAN

> <s_m_source_file>
sdf/inactives_sanitized.sdf

> <i_m_source_file_index>
62

> <i_lp_mmshare_version>
49012

> <i_m_ct_stereo_status>
1

> <i_f3d_flags>
0

> <s_epik_input>
W05IMl1jMW5vYyhjMTIpW2NIXVtjSF1jKFtjSF0yKS1uKG5jKFtjSF0zKUMoRikoRilGKWMzQyg9TylbTkhdYyhbY0hdW2NIXTQpYyhGKVtjSF1jNC1uNWMobltjSF1bY0hdNSlbQ0gyXU4oW0NIM10pW0NIM10=

> <s_epik_cmdline>
J2VwaWtfcHl0aG9uJywgJy1waHQnLCAnMC41JywgJy1waCcsICc3LjUnLCAnLW50JywgJy1tYScsICcyMDAnLCAnLWltYWUnLCAnPGluZmlsZS5tYWU+JywgJy1vbWFlJywgJzxvdXRmaWxlLm1hZT4n

> <r_lp_tautomer_probability>
1

> <r_epik_Ionization_Penalty>
  0.3413

> <r_epik_Ionization_Penalty_Charging>
  0.1182

> <r_epik_Ionization_Penalty_Neutral>
  0.2230

> <r_epik_State_Penalty>
 -0.0000

> <r_epik_Charging_Adjusted_Penalty>
0.118204921208455

> <i_epik_Tot_Q>
0

> <i_epik_Tot_abs_Q>
0

> <s_lp_Force_Field>
OPLS3e

> <r_lp_Energy>
48.56702

> <b_lp_Chiralities_Consistent>
1

> <s_lp_Variant>
sdf/inactives_sanitized.sdf:62-1

$$$$
sdf/inactives_sanitized.sdf:63
                    3D
 Schrodinger Suite 2020-1.
 66 69  0  0  1  0            999 V2000
    1.8834   -0.6740   -1.2152 C   0  0  0  0  0  0
    2.7166   -0.0138   -2.1813 C   0  0  0  0  0  0
   -0.0841    0.0769    0.1930 C   0  0  0  0  0  0
    1.4520   -0.0430    0.1117 C   0  0  1  0  0  0
    1.5653   -1.9523   -1.6431 C   0  0  0  0  0  0
   -2.4854    2.4152    1.2369 C   0  0  2  0  0  0
    2.2159   -2.4030   -3.1911 S   0  0  0  0  0  0
   -0.6105    1.2812   -0.1027 N   0  0  0  0  0  0
    3.2863    1.2756   -2.1582 C   0  0  0  0  0  0
   -2.0348    1.6463   -0.0503 C   0  0  2  0  0  0
   -2.1158    1.6398    2.5220 C   0  0  0  0  0  0
    4.6702    3.0757   -3.1754 C   0  0  0  0  0  0
    4.0847    1.7356   -3.2154 C   0  0  0  0  0  0
    2.9839   -0.8339   -3.3194 C   0  0  0  0  0  0
    5.8948    3.2603   -3.6550 N   0  3  0  0  0  0
    2.0344   -0.8148    1.3266 C   0  0  0  0  0  0
   -0.7664   -0.8984    0.5136 O   0  0  0  0  0  0
   -2.8886    0.8389    3.0544 O   0  0  0  0  0  0
    4.3138    0.8952   -4.3085 C   0  0  0  0  0  0
    3.7769   -0.3849   -4.3814 C   0  0  0  0  0  0
    3.9612    4.0738   -2.6607 N   0  0  0  0  0  0
   -0.8795    1.9552    2.9655 O   0  0  0  0  0  0
    3.5579   -0.8035    1.3780 C   0  0  0  0  0  0
   -4.0058    2.7182    1.2053 C   0  0  0  0  0  0
   -2.4501    2.4454   -1.3122 C   0  0  0  0  0  0
   -0.3327    1.3117    4.1083 C   0  0  0  0  0  0
    4.2814   -1.9185    0.9455 C   0  0  0  0  0  0
    4.2294    0.3280    1.8490 C   0  0  0  0  0  0
   -4.3571    3.5755   -0.0207 C   0  0  0  0  0  0
    1.0593    1.8832    4.3940 C   0  0  0  0  0  0
   -3.9350    2.8682   -1.3208 C   0  0  0  0  0  0
    5.6210    0.3442    1.8883 C   0  0  0  0  0  0
    5.6730   -1.9017    0.9848 C   0  0  0  0  0  0
    6.3363   -0.7708    1.4567 C   0  0  0  0  0  0
    1.8411    0.9729    0.1862 H   0  0  0  0  0  0
    0.9598   -2.6688   -1.1072 H   0  0  0  0  0  0
   -1.9522    3.3663    1.2778 H   0  0  0  0  0  0
    0.0244    2.0330   -0.3266 H   0  0  0  0  0  0
    3.1217    1.9246   -1.3124 H   0  0  0  0  0  0
   -2.6173    0.7211   -0.0860 H   0  0  0  0  0  0
    6.4064    2.4781   -4.0371 H   0  0  0  0  0  0
    1.6670   -0.3834    2.2597 H   0  0  0  0  0  0
    1.6767   -1.8466    1.3415 H   0  0  0  0  0  0
    4.9205    1.2455   -5.1305 H   0  0  0  0  0  0
    3.9705   -1.0137   -5.2385 H   0  0  0  0  0  0
    4.3524    5.0039   -2.6269 H   0  0  0  0  0  0
    3.0293    3.8991   -2.3140 H   0  0  0  0  0  0
   -4.5943    1.7985    1.1844 H   0  0  0  0  0  0
   -4.2996    3.2781    2.0951 H   0  0  0  0  0  0
   -1.8403    3.3480   -1.3802 H   0  0  0  0  0  0
   -2.2409    1.8614   -2.2098 H   0  0  0  0  0  0
   -0.9817    1.4621    4.9726 H   0  0  0  0  0  0
   -0.2641    0.2373    3.9297 H   0  0  0  0  0  0
    3.7685   -2.7951    0.5768 H   0  0  0  0  0  0
    3.6757    1.1937    2.1814 H   0  0  0  0  0  0
   -5.4288    3.7784   -0.0394 H   0  0  0  0  0  0
   -3.8622    4.5454    0.0505 H   0  0  0  0  0  0
    1.5120    1.3876    5.2528 H   0  0  0  0  0  0
    1.0098    2.9501    4.6135 H   0  0  0  0  0  0
    1.7252    1.7466    3.5421 H   0  0  0  0  0  0
   -4.1312    3.5165   -2.1758 H   0  0  0  0  0  0
   -4.5571    1.9833   -1.4652 H   0  0  0  0  0  0
    6.1438    1.2161    2.2529 H   0  0  0  0  0  0
    6.2351   -2.7617    0.6519 H   0  0  0  0  0  0
    7.4158   -0.7588    1.4895 H   0  0  0  0  0  0
    6.3112    4.1798   -3.6341 H   0  0  0  0  0  0
  1  2  1  0  0  0
  1  4  1  0  0  0
  1  5  2  0  0  0
  2  9  2  0  0  0
  2 14  1  0  0  0
  3  4  1  0  0  0
  3  8  1  0  0  0
  3 17  2  0  0  0
  4 16  1  0  0  0
  4 35  1  0  0  0
  5  7  1  0  0  0
  5 36  1  0  0  0
  6 10  1  0  0  0
  6 11  1  0  0  0
  6 24  1  0  0  0
  6 37  1  0  0  0
  7 14  1  0  0  0
  8 10  1  0  0  0
  8 38  1  0  0  0
  9 13  1  0  0  0
  9 39  1  0  0  0
 10 25  1  0  0  0
 10 40  1  0  0  0
 11 18  2  0  0  0
 11 22  1  0  0  0
 12 13  1  0  0  0
 12 15  2  0  0  0
 12 21  1  0  0  0
 13 19  2  0  0  0
 14 20  2  0  0  0
 15 41  1  0  0  0
 15 66  1  0  0  0
 16 23  1  0  0  0
 16 42  1  0  0  0
 16 43  1  0  0  0
 19 20  1  0  0  0
 19 44  1  0  0  0
 20 45  1  0  0  0
 21 46  1  0  0  0
 21 47  1  0  0  0
 22 26  1  0  0  0
 23 27  2  0  0  0
 23 28  1  0  0  0
 24 29  1  0  0  0
 24 48  1  0  0  0
 24 49  1  0  0  0
 25 31  1  0  0  0
 25 50  1  0  0  0
 25 51  1  0  0  0
 26 30  1  0  0  0
 26 52  1  0  0  0
 26 53  1  0  0  0
 27 33  1  0  0  0
 27 54  1  0  0  0
 28 32  2  0  0  0
 28 55  1  0  0  0
 29 31  1  0  0  0
 29 56  1  0  0  0
 29 57  1  0  0  0
 30 58  1  0  0  0
 30 59  1  0  0  0
 30 60  1  0  0  0
 31 61  1  0  0  0
 31 62  1  0  0  0
 32 34  1  0  0  0
 32 63  1  0  0  0
 33 34  2  0  0  0
 33 64  1  0  0  0
 34 65  1  0  0  0
M  CHG  1  15   1
M  END
> <chembl_id>
CHEMBL368878

> <chembl_pref_name>
None

> <i_m_ct_stereo_status>
1

> <s_m_source_file>
sdf/inactives_sanitized.sdf

> <i_m_source_file_index>
63

> <i_lp_mmshare_version>
49012

> <i_f3d_flags>
0

> <s_epik_input>
W0hdXE49QyhbTkgyXSlcYyhbY0hdMSlbY0hdW2NIXWMoYzEyKXNbY0hdYzJbQ0BIXShbQ0gyXWMzW2NIXVtjSF1bY0hdW2NIXVtjSF0zKUMoPU8pW05IXVtDQEhdKFtDSDJdW0NIMl1bQ0gyXVtDSDJdNClbQ0BASF00Qyg9TylPW0NIMl1bQ0gzXQ==

> <s_epik_cmdline>
J2VwaWtfcHl0aG9uJywgJy1waHQnLCAnMC41JywgJy1waCcsICc3LjUnLCAnLW50JywgJy1tYScsICcyMDAnLCAnLWltYWUnLCAnPGluZmlsZS5tYWU+JywgJy1vbWFlJywgJzxvdXRmaWxlLm1hZT4n

> <r_lp_tautomer_probability>
1

> <r_epik_Ionization_Penalty>
  0.0010

> <r_epik_Ionization_Penalty_Charging>
  0.0010

> <r_epik_Ionization_Penalty_Neutral>
  0.0000

> <r_epik_State_Penalty>
 -0.0000

> <r_epik_Charging_Adjusted_Penalty>
0.000984797499885888

> <i_epik_Tot_Q>
1

> <i_epik_Tot_abs_Q>
1

> <s_epik_Chemistry_Notes>
This compound has an ester and may undergo hydrolysis at high or low pH. This compound has an imine and may undergo hydrolysis.

> <s_lp_Force_Field>
OPLS3e

> <r_lp_Energy>
31.664247

> <b_lp_Chiralities_Consistent>
1

> <s_lp_Variant>
sdf/inactives_sanitized.sdf:63-1

$$$$
sdf/inactives_sanitized.sdf:64
                    3D
 Schrodinger Suite 2020-1.
 85 89  0  0  1  0            999 V2000
    1.0686    3.1377    5.9919 N   0  0  0  0  0  0
    1.0953    2.8587    4.6584 C   0  0  0  0  0  0
    1.5905    3.6552    3.8617 O   0  0  0  0  0  0
    0.4696    1.5116    4.2905 C   0  0  0  0  0  0
   -0.0778    0.6675    5.2788 C   0  0  0  0  0  0
   -0.6476   -0.5531    4.9169 C   0  0  0  0  0  0
   -0.6726   -0.9385    3.5766 C   0  0  0  0  0  0
   -0.1285   -0.1161    2.5855 C   0  0  0  0  0  0
   -0.1885   -0.5603    1.2527 N   0  0  0  0  0  0
    0.2192    0.1321    0.0415 C   0  0  2  0  0  0
   -0.2026   -0.6271   -1.2015 C   0  0  0  0  0  0
    0.3552   -1.8711   -1.5304 C   0  0  0  0  0  0
    0.0015   -2.5432   -2.7122 C   0  0  0  0  0  0
    0.5475   -3.7552   -3.0969 O   0  0  0  0  0  0
    1.5837   -4.3374   -2.3134 C   0  0  0  0  0  0
   -0.9455   -1.9687   -3.5715 C   0  0  0  0  0  0
   -1.2522   -2.6673   -4.7259 O   0  0  0  0  0  0
   -2.1614   -2.1046   -5.6645 C   0  0  0  0  0  0
   -1.5220   -0.7338   -3.2314 C   0  0  0  0  0  0
   -1.1548   -0.0749   -2.0610 C   0  0  0  0  0  0
    1.7640    0.3576    0.0273 C   0  0  0  0  0  0
    2.4990   -0.4942    0.5383 O   0  0  0  0  0  0
    2.2538    1.4133   -0.6721 N   0  0  0  0  0  0
    1.4399    2.4988   -1.2401 C   0  0  0  0  0  0
    2.4334    3.2913   -2.0916 C   0  0  0  0  0  0
    3.7898    2.9941   -1.4766 C   0  0  0  0  0  0
    3.6864    1.5420   -1.0013 C   0  0  2  0  0  0
    4.1969    0.5049   -2.0270 C   0  0  0  0  0  0
    5.4911   -0.0576   -1.9582 C   0  0  0  0  0  0
    6.7165    0.4192   -0.7154 S   0  0  0  0  0  0
    8.0083   -0.1462   -1.1239 O   0  0  0  0  0  0
    6.6049    1.8676   -0.5094 O   0  0  0  0  0  0
    6.1572   -0.4742    0.8715 C   0  0  0  0  0  0
    7.0907   -0.0716    2.0236 C   0  0  0  0  0  0
    6.1310   -1.9940    0.6371 C   0  0  0  0  0  0
    5.8610   -1.0468   -2.8789 C   0  0  0  0  0  0
    4.9722   -1.4917   -3.8534 C   0  0  0  0  0  0
    3.6845   -0.9523   -3.9219 C   0  0  0  0  0  0
    3.3184    0.0487   -3.0247 C   0  0  0  0  0  0
    2.7251   -1.3477   -4.8649 N   0  0  0  0  0  0
    2.5904   -2.5909   -5.4719 C   0  0  0  0  0  0
    3.3031   -3.5823   -5.2956 O   0  0  0  0  0  0
    1.5132   -2.5564   -6.2807 O   0  0  0  0  0  0
    1.0901   -3.7201   -6.9768 C   0  0  0  0  0  0
    0.4387    1.1143    2.9486 C   0  0  0  0  0  0
   -0.0294    1.1142    6.6788 C   0  0  0  0  0  0
    0.5348    2.3067    6.9359 C   0  0  0  0  0  0
    1.4768    4.0202    6.2635 H   0  0  0  0  0  0
   -1.0708   -1.2042    5.6680 H   0  0  0  0  0  0
   -1.1162   -1.8883    3.3134 H   0  0  0  0  0  0
   -0.9742   -1.1781    1.1079 H   0  0  0  0  0  0
   -0.2907    1.0963    0.0729 H   0  0  0  0  0  0
    1.0832   -2.2992   -0.8583 H   0  0  0  0  0  0
    1.9176   -5.2592   -2.7895 H   0  0  0  0  0  0
    1.2344   -4.5899   -1.3114 H   0  0  0  0  0  0
    2.4481   -3.6751   -2.2380 H   0  0  0  0  0  0
   -2.2637   -2.7802   -6.5136 H   0  0  0  0  0  0
   -1.7994   -1.1487   -6.0458 H   0  0  0  0  0  0
   -3.1527   -1.9671   -5.2302 H   0  0  0  0  0  0
   -2.2556   -0.2636   -3.8681 H   0  0  0  0  0  0
   -1.6071    0.8793   -1.8321 H   0  0  0  0  0  0
    0.6317    2.1326   -1.8735 H   0  0  0  0  0  0
    1.0550    3.1371   -0.4435 H   0  0  0  0  0  0
    2.4112    2.9262   -3.1198 H   0  0  0  0  0  0
    2.1988    4.3556   -2.1255 H   0  0  0  0  0  0
    4.5908    3.1287   -2.2053 H   0  0  0  0  0  0
    4.0399    3.6508   -0.6420 H   0  0  0  0  0  0
    4.2758    1.3940   -0.1008 H   0  0  0  0  0  0
    5.1483   -0.1341    1.0980 H   0  0  0  0  0  0
    6.7889   -0.5415    2.9601 H   0  0  0  0  0  0
    7.0758    1.0075    2.1802 H   0  0  0  0  0  0
    8.1222   -0.3609    1.8196 H   0  0  0  0  0  0
    5.8231   -2.5251    1.5382 H   0  0  0  0  0  0
    7.1121   -2.3705    0.3457 H   0  0  0  0  0  0
    5.4260   -2.2606   -0.1505 H   0  0  0  0  0  0
    6.8445   -1.4909   -2.8452 H   0  0  0  0  0  0
    5.3007   -2.2502   -4.5479 H   0  0  0  0  0  0
    2.3206    0.4584   -3.0896 H   0  0  0  0  0  0
    1.9936   -0.6787   -5.0554 H   0  0  0  0  0  0
    0.2042   -3.4941   -7.5702 H   0  0  0  0  0  0
    0.8366   -4.5210   -6.2804 H   0  0  0  0  0  0
    1.8692   -4.0787   -7.6513 H   0  0  0  0  0  0
    0.8487    1.7664    2.1915 H   0  0  0  0  0  0
   -0.4321    0.5080    7.4774 H   0  0  0  0  0  0
    0.6221    2.7279    7.9268 H   0  0  0  0  0  0
  1  2  1  0  0  0
  1 47  1  0  0  0
  1 48  1  0  0  0
  2  3  2  0  0  0
  2  4  1  0  0  0
  4  5  2  0  0  0
  4 45  1  0  0  0
  5  6  1  0  0  0
  5 46  1  0  0  0
  6  7  2  0  0  0
  6 49  1  0  0  0
  7  8  1  0  0  0
  7 50  1  0  0  0
  8  9  1  0  0  0
  8 45  2  0  0  0
  9 10  1  0  0  0
  9 51  1  0  0  0
 10 11  1  0  0  0
 10 21  1  0  0  0
 10 52  1  0  0  0
 11 12  2  0  0  0
 11 20  1  0  0  0
 12 13  1  0  0  0
 12 53  1  0  0  0
 13 14  1  0  0  0
 13 16  2  0  0  0
 14 15  1  0  0  0
 15 54  1  0  0  0
 15 55  1  0  0  0
 15 56  1  0  0  0
 16 17  1  0  0  0
 16 19  1  0  0  0
 17 18  1  0  0  0
 18 57  1  0  0  0
 18 58  1  0  0  0
 18 59  1  0  0  0
 19 20  2  0  0  0
 19 60  1  0  0  0
 20 61  1  0  0  0
 21 22  2  0  0  0
 21 23  1  0  0  0
 23 24  1  0  0  0
 23 27  1  0  0  0
 24 25  1  0  0  0
 24 62  1  0  0  0
 24 63  1  0  0  0
 25 26  1  0  0  0
 25 64  1  0  0  0
 25 65  1  0  0  0
 26 27  1  0  0  0
 26 66  1  0  0  0
 26 67  1  0  0  0
 27 28  1  0  0  0
 27 68  1  0  0  0
 28 29  2  0  0  0
 28 39  1  0  0  0
 29 30  1  0  0  0
 29 36  1  0  0  0
 30 31  2  0  0  0
 30 32  2  0  0  0
 30 33  1  0  0  0
 33 34  1  0  0  0
 33 35  1  0  0  0
 33 69  1  0  0  0
 34 70  1  0  0  0
 34 71  1  0  0  0
 34 72  1  0  0  0
 35 73  1  0  0  0
 35 74  1  0  0  0
 35 75  1  0  0  0
 36 37  2  0  0  0
 36 76  1  0  0  0
 37 38  1  0  0  0
 37 77  1  0  0  0
 38 39  2  0  0  0
 38 40  1  0  0  0
 39 78  1  0  0  0
 40 41  1  0  0  0
 40 79  1  0  0  0
 41 42  2  0  0  0
 41 43  1  0  0  0
 43 44  1  0  0  0
 44 80  1  0  0  0
 44 81  1  0  0  0
 44 82  1  0  0  0
 45 83  1  0  0  0
 46 47  2  0  0  0
 46 84  1  0  0  0
 47 85  1  0  0  0
M  END
> <chembl_id>
CHEMBL3949343

> <chembl_pref_name>
None

> <i_m_ct_stereo_status>
1

> <s_m_source_file>
sdf/inactives_sanitized.sdf

> <i_m_source_file_index>
64

> <i_lp_mmshare_version>
49012

> <i_f3d_flags>
0

> <s_epik_input>
Tz1jMVtuSF1bY0hdW2NIXWMoYzEyKVtjSF1bY0hdYyhbY0hdMilbTkhdW0NASF0oYzNbY0hdYyhPW0NIM10pYyhPW0NIM10pW2NIXVtjSF0zKUMoPU8pTjRbQ0gyXVtDSDJdW0NIMl1bQ0BASF00YzVjKFMoPU8pKD1PKVtDSF0oW0NIM10pW0NIM10pW2NIXVtjSF1jKFtjSF01KVtOSF1DKD1PKU9bQ0gzXQ==

> <s_epik_cmdline>
J2VwaWtfcHl0aG9uJywgJy1waHQnLCAnMC41JywgJy1waCcsICc3LjUnLCAnLW50JywgJy1tYScsICcyMDAnLCAnLWltYWUnLCAnPGluZmlsZS5tYWU+JywgJy1vbWFlJywgJzxvdXRmaWxlLm1hZT4n

> <r_lp_tautomer_probability>
1

> <r_epik_Ionization_Penalty>
  0.0001

> <r_epik_Ionization_Penalty_Charging>
  0.0000

> <r_epik_Ionization_Penalty_Neutral>
  0.0000

> <r_epik_State_Penalty>
 -0.0000

> <r_epik_Charging_Adjusted_Penalty>
3.57724978650131e-05

> <i_epik_Tot_Q>
0

> <i_epik_Tot_abs_Q>
0

> <s_epik_Chemistry_Notes>
This compound has an ester and may undergo hydrolysis at high or low pH.

> <s_lp_Force_Field>
OPLS3e

> <r_lp_Energy>
63.066415

> <b_lp_Chiralities_Consistent>
1

> <s_lp_Variant>
sdf/inactives_sanitized.sdf:64-1

$$$$
sdf/inactives_sanitized.sdf:65
                    3D
 Schrodinger Suite 2020-1.
 66 70  0  0  1  0            999 V2000
    8.6572    5.8275   -0.2647 C   0  0  0  0  0  0
    8.8879    6.9647    0.7086 C   0  0  0  0  0  0
    8.1058    4.9946   -2.4873 C   0  0  0  0  0  0
    9.6780    0.5130    0.7553 C   0  0  0  0  0  0
    8.3237    0.1580    0.6786 C   0  0  0  0  0  0
    7.6817    1.2045    0.0323 C   0  0  0  0  0  0
   10.8471   -0.2902    1.2994 C   0  0  0  0  0  0
   -0.4412    2.0655    0.6546 C   0  0  0  0  0  0
    6.2721   -1.1521    0.2089 C   0  0  0  0  0  0
    6.2540    1.3269   -0.2170 C   0  0  0  0  0  0
    4.1924    0.0742   -0.0663 C   0  0  0  0  0  0
    3.3844   -0.1161    1.0564 C   0  0  0  0  0  0
    2.0039   -0.2089    0.9054 C   0  0  0  0  0  0
    3.6210    0.1401   -1.3422 C   0  0  0  0  0  0
   -0.1483    4.5998    0.5887 C   0  0  0  0  0  0
   -0.5894   -1.3096   -1.1883 C   0  0  0  0  0  0
   -1.9642   -1.4461   -1.3684 C   0  0  0  0  0  0
    7.5456   -1.0675    1.0875 C   0  0  0  0  0  0
   -0.0535   -0.1980   -0.5249 C   0  0  0  0  0  0
   10.4622   -1.0977    2.2876 F   0  0  0  0  0  0
   11.3821   -1.0496    0.3440 F   0  0  0  0  0  0
   11.8123    0.4944    1.7823 F   0  0  0  0  0  0
    5.6738    2.3440   -0.6072 O   0  0  0  0  0  0
    8.6893    2.1039   -0.2597 N   0  0  0  0  0  0
    9.8717    1.7052    0.2358 N   0  0  0  0  0  0
    5.5854    0.1650    0.1086 N   0  0  0  0  0  0
    8.3153    6.0584   -1.6095 C   0  0  0  0  0  0
    8.2313    3.6817   -2.0396 C   0  0  0  0  0  0
    8.5641    3.4329   -0.7066 C   0  0  0  0  0  0
    8.7784    4.4995    0.1738 C   0  0  0  0  0  0
    1.4213   -0.1137   -0.3628 C   0  0  0  0  0  0
    2.2404    0.0446   -1.4851 C   0  0  0  0  0  0
   -0.9326    0.8018   -0.0531 C   0  0  0  0  0  0
   -0.4176    3.3269   -0.2373 N   0  3  0  0  0  0
    0.5792    3.2116   -1.4078 C   0  0  0  0  0  0
    9.0217    6.7619    1.9149 O   0  0  0  0  0  0
    8.9439    8.2034    0.2072 N   0  0  0  0  0  0
   -2.8270   -0.4658   -0.8881 C   0  0  0  0  0  0
   -2.3127    0.6513   -0.2345 C   0  0  0  0  0  0
    7.8445    5.1892   -3.5171 H   0  0  0  0  0  0
   -1.1082    2.3153    1.4818 H   0  0  0  0  0  0
    0.5664    1.9867    1.0606 H   0  0  0  0  0  0
    6.5268   -1.4861   -0.7981 H   0  0  0  0  0  0
    5.6007   -1.9029    0.6287 H   0  0  0  0  0  0
    3.8210   -0.1839    2.0427 H   0  0  0  0  0  0
    1.3835   -0.3485    1.7791 H   0  0  0  0  0  0
    4.2418    0.2688   -2.2172 H   0  0  0  0  0  0
    0.8414    4.5028    1.0383 H   0  0  0  0  0  0
   -0.9307    4.6670    1.3457 H   0  0  0  0  0  0
   -0.1979    5.4478   -0.0956 H   0  0  0  0  0  0
    0.0669   -2.0821   -1.5635 H   0  0  0  0  0  0
   -2.3596   -2.3125   -1.8784 H   0  0  0  0  0  0
    8.1358   -1.9777    0.9793 H   0  0  0  0  0  0
    7.2720   -1.0111    2.1417 H   0  0  0  0  0  0
    8.2048    7.0618   -1.9943 H   0  0  0  0  0  0
    8.0649    2.8641   -2.7265 H   0  0  0  0  0  0
    9.0375    4.2858    1.2021 H   0  0  0  0  0  0
    1.8053    0.1052   -2.4723 H   0  0  0  0  0  0
    1.5754    3.0686   -0.9856 H   0  0  0  0  0  0
    0.5147    4.1359   -1.9834 H   0  0  0  0  0  0
    0.2726    2.3599   -2.0153 H   0  0  0  0  0  0
    8.8336    8.3593   -0.7837 H   0  0  0  0  0  0
    9.0982    8.9898    0.8211 H   0  0  0  0  0  0
   -3.8935   -0.5698   -1.0251 H   0  0  0  0  0  0
   -2.9940    1.4084    0.1262 H   0  0  0  0  0  0
   -1.3399    3.4217   -0.6395 H   0  0  0  0  0  0
  1  2  1  0  0  0
  1 27  2  0  0  0
  1 30  1  0  0  0
  2 36  2  0  0  0
  2 37  1  0  0  0
  3 27  1  0  0  0
  3 28  2  0  0  0
  3 40  1  0  0  0
  4  5  1  0  0  0
  4  7  1  0  0  0
  4 25  2  0  0  0
  5  6  2  0  0  0
  5 18  1  0  0  0
  6 10  1  0  0  0
  6 24  1  0  0  0
  7 20  1  0  0  0
  7 21  1  0  0  0
  7 22  1  0  0  0
  8 33  1  0  0  0
  8 34  1  0  0  0
  8 41  1  0  0  0
  8 42  1  0  0  0
  9 18  1  0  0  0
  9 26  1  0  0  0
  9 43  1  0  0  0
  9 44  1  0  0  0
 10 23  2  0  0  0
 10 26  1  0  0  0
 11 12  2  0  0  0
 11 14  1  0  0  0
 11 26  1  0  0  0
 12 13  1  0  0  0
 12 45  1  0  0  0
 13 31  2  0  0  0
 13 46  1  0  0  0
 14 32  2  0  0  0
 14 47  1  0  0  0
 15 34  1  0  0  0
 15 48  1  0  0  0
 15 49  1  0  0  0
 15 50  1  0  0  0
 16 17  2  0  0  0
 16 19  1  0  0  0
 16 51  1  0  0  0
 17 38  1  0  0  0
 17 52  1  0  0  0
 18 53  1  0  0  0
 18 54  1  0  0  0
 19 31  1  0  0  0
 19 33  2  0  0  0
 24 25  1  0  0  0
 24 29  1  0  0  0
 27 55  1  0  0  0
 28 29  1  0  0  0
 28 56  1  0  0  0
 29 30  2  0  0  0
 30 57  1  0  0  0
 31 32  1  0  0  0
 32 58  1  0  0  0
 33 39  1  0  0  0
 34 35  1  0  0  0
 34 66  1  0  0  0
 35 59  1  0  0  0
 35 60  1  0  0  0
 35 61  1  0  0  0
 37 62  1  0  0  0
 37 63  1  0  0  0
 38 39  2  0  0  0
 38 64  1  0  0  0
 39 65  1  0  0  0
M  CHG  1  34   1
M  END
> <chembl_id>
CHEMBL222079

> <chembl_pref_name>
None

> <s_m_source_file>
sdf/inactives_sanitized.sdf

> <i_m_source_file_index>
65

> <i_lp_mmshare_version>
49012

> <i_m_ct_stereo_status>
1

> <i_f3d_flags>
0

> <s_epik_input>
Tz1DKFtOSDJdKWMxW2NIXVtjSF1bY0hdYyhbY0hdMSktbihuYzJDKEYpKEYpRiljKGMyMylDKD1PKU4oW0NIMl1bQ0gyXTMpYzRbY0hdW2NIXWMoW2NIXVtjSF00KS1jNVtjSF1bY0hdW2NIXVtjSF1jNVtDSDJdTihbQ0gzXSlbQ0gzXQ==

> <s_epik_cmdline>
J2VwaWtfcHl0aG9uJywgJy1waHQnLCAnMC41JywgJy1waCcsICc3LjUnLCAnLW50JywgJy1tYScsICcyMDAnLCAnLWltYWUnLCAnPGluZmlsZS5tYWU+JywgJy1vbWFlJywgJzxvdXRmaWxlLm1hZT4n

> <r_lp_tautomer_probability>
1

> <r_epik_Ionization_Penalty>
  0.1404

> <r_epik_Ionization_Penalty_Charging>
  0.1404

> <r_epik_Ionization_Penalty_Neutral>
  0.0000

> <r_epik_State_Penalty>
  0.1298

> <r_epik_Charging_Adjusted_Penalty>
0.270210309234098

> <i_epik_Tot_Q>
1

> <i_epik_Tot_abs_Q>
1

> <s_lp_Force_Field>
OPLS3e

> <r_lp_Energy>
82.696136

> <b_lp_Chiralities_Consistent>
1

> <s_lp_Variant>
sdf/inactives_sanitized.sdf:65-1

$$$$
sdf/inactives_sanitized.sdf:66
                    3D
 Schrodinger Suite 2020-1.
 54 57  0  0  1  0            999 V2000
   -5.4406   -2.6856   -3.0176 S   0  0  0  0  0  0
    2.6878    0.1306    1.8175 C   0  0  0  0  0  0
   -6.4644   -2.4664   -1.5476 C   0  0  0  0  0  0
    3.0549    1.5058    1.5819 C   0  0  0  0  0  0
    3.6955    0.9608    3.6651 N   0  0  0  0  0  0
    3.1115   -0.1452    3.1053 C   0  0  0  0  0  0
    2.9148    2.3755    0.4884 C   0  0  0  0  0  0
   -5.9136   -2.1102   -0.2961 C   0  0  0  0  0  0
    3.2163    4.6094   -0.5710 C   0  0  0  0  0  0
    0.5073   -0.5061    0.6291 C   0  0  0  0  0  0
    3.3759    3.6983    0.5659 C   0  0  0  0  0  0
    3.6831    1.9997    2.7622 C   0  0  0  0  0  0
    1.9984   -0.8163    0.8482 C   0  0  0  0  0  0
   -4.4445   -1.6085   -3.0308 O   0  0  0  0  0  0
   -5.0322   -4.0942   -3.0333 O   0  0  0  0  0  0
   -0.3029   -1.5833    0.5389 N   0  0  0  0  0  0
   -4.4525   -1.9484   -0.0684 C   0  0  0  0  0  0
    4.1028    5.5806   -0.7565 N   0  3  0  0  0  0
   -6.4885   -2.4266   -4.4030 N   0  0  0  0  0  0
    0.1379    0.6636    0.5121 O   0  0  0  0  0  0
    3.9875    4.1313    1.7505 C   0  0  0  0  0  0
    4.1566    3.3092    2.8636 C   0  0  0  0  0  0
   -3.5816   -3.0275   -0.2447 C   0  0  0  0  0  0
   -3.9359   -0.7172    0.3456 C   0  0  0  0  0  0
    2.1865    4.4464   -1.3939 N   0  0  0  0  0  0
   -1.6970   -1.6370    0.3518 C   0  0  0  0  0  0
   -2.2146   -2.8738   -0.0363 C   0  0  0  0  0  0
   -2.5692   -0.5567    0.5562 C   0  0  0  0  0  0
   -7.8472   -2.6563   -1.6676 C   0  0  0  0  0  0
   -6.7801   -1.9106    0.7873 C   0  0  0  0  0  0
   -8.6885   -2.4654   -0.5745 C   0  0  0  0  0  0
   -8.1555   -2.0849    0.6527 C   0  0  0  0  0  0
    4.0667    0.9633    4.6045 H   0  0  0  0  0  0
    3.0411   -1.0558    3.6824 H   0  0  0  0  0  0
    2.4470    2.0191   -0.4172 H   0  0  0  0  0  0
    2.4964   -0.8047   -0.1218 H   0  0  0  0  0  0
    2.0955   -1.8399    1.2158 H   0  0  0  0  0  0
    0.1482   -2.4860    0.5626 H   0  0  0  0  0  0
    3.9996    6.2147   -1.5352 H   0  0  0  0  0  0
   -7.2210   -3.1312   -4.5213 H   0  0  0  0  0  0
   -6.8260   -1.4659   -4.5058 H   0  0  0  0  0  0
    4.3392    5.1501    1.8210 H   0  0  0  0  0  0
    4.6302    3.6785    3.7617 H   0  0  0  0  0  0
   -3.9642   -3.9916   -0.5468 H   0  0  0  0  0  0
   -4.5959    0.1242    0.5004 H   0  0  0  0  0  0
    2.0669    5.0672   -2.1809 H   0  0  0  0  0  0
    1.5225    3.7047   -1.2238 H   0  0  0  0  0  0
   -1.5625   -3.7227   -0.1855 H   0  0  0  0  0  0
   -2.2203    0.4085    0.8870 H   0  0  0  0  0  0
   -8.2857   -2.9504   -2.6090 H   0  0  0  0  0  0
   -6.3822   -1.6307    1.7523 H   0  0  0  0  0  0
   -9.7537   -2.6094   -0.6800 H   0  0  0  0  0  0
   -8.8055   -1.9336    1.5019 H   0  0  0  0  0  0
    4.8790    5.6779   -0.1185 H   0  0  0  0  0  0
  1  3  1  0  0  0
  1 14  2  0  0  0
  1 15  2  0  0  0
  1 19  1  0  0  0
  2 13  1  0  0  0
  2  4  1  0  0  0
  2  6  2  0  0  0
  3  8  2  0  0  0
  3 29  1  0  0  0
  4  7  1  0  0  0
  4 12  2  0  0  0
  5  6  1  0  0  0
  5 12  1  0  0  0
  5 33  1  0  0  0
  6 34  1  0  0  0
  7 11  2  0  0  0
  7 35  1  0  0  0
  8 17  1  0  0  0
  8 30  1  0  0  0
  9 11  1  0  0  0
  9 18  2  0  0  0
  9 25  1  0  0  0
 10 16  1  0  0  0
 10 13  1  0  0  0
 10 20  2  0  0  0
 11 21  1  0  0  0
 12 22  1  0  0  0
 13 36  1  0  0  0
 13 37  1  0  0  0
 16 26  1  0  0  0
 16 38  1  0  0  0
 17 23  2  0  0  0
 17 24  1  0  0  0
 18 39  1  0  0  0
 18 54  1  0  0  0
 19 40  1  0  0  0
 19 41  1  0  0  0
 21 22  2  0  0  0
 21 42  1  0  0  0
 22 43  1  0  0  0
 23 27  1  0  0  0
 23 44  1  0  0  0
 24 28  2  0  0  0
 24 45  1  0  0  0
 25 46  1  0  0  0
 25 47  1  0  0  0
 26 28  1  0  0  0
 26 27  2  0  0  0
 27 48  1  0  0  0
 28 49  1  0  0  0
 29 31  2  0  0  0
 29 50  1  0  0  0
 30 32  2  0  0  0
 30 51  1  0  0  0
 31 32  1  0  0  0
 31 52  1  0  0  0
 32 53  1  0  0  0
M  CHG  1  18   1
M  END
> <chembl_id>
CHEMBL136846

> <chembl_pref_name>
None

> <s_m_source_file>
sdf/inactives_sanitized.sdf

> <i_m_source_file_index>
66

> <i_lp_mmshare_version>
49012

> <i_m_ct_stereo_status>
1

> <i_f3d_flags>
0

> <s_epik_input>
W2NIXTFbY0hdW2NIXVtjSF1jKGMxUyg9TykoPU8pW05IMl0pLWMyW2NIXVtjSF1jKFtjSF1bY0hdMilbTkhdQyg9TylbQ0gyXWMzW2NIXVtuSF1jKGMzNClbY0hdW2NIXWMoW2NIXTQpL0MoPU4vW0hdKVtOSDJd

> <s_epik_cmdline>
J2VwaWtfcHl0aG9uJywgJy1waHQnLCAnMC41JywgJy1waCcsICc3LjUnLCAnLW50JywgJy1tYScsICcyMDAnLCAnLWltYWUnLCAnPGluZmlsZS5tYWU+JywgJy1vbWFlJywgJzxvdXRmaWxlLm1hZT4n

> <r_lp_tautomer_probability>
1

> <r_epik_Ionization_Penalty>
  0.0033

> <r_epik_Ionization_Penalty_Charging>
  0.0010

> <r_epik_Ionization_Penalty_Neutral>
  0.0024

> <r_epik_State_Penalty>
 -0.0000

> <r_epik_Charging_Adjusted_Penalty>
0.000984797499885888

> <i_epik_Tot_Q>
1

> <i_epik_Tot_abs_Q>
1

> <s_epik_Chemistry_Notes>
This compound has an imine and may undergo hydrolysis.

> <s_lp_Force_Field>
OPLS3e

> <r_lp_Energy>
33.352557

> <b_lp_Chiralities_Consistent>
1

> <s_lp_Variant>
sdf/inactives_sanitized.sdf:66-1

$$$$
sdf/inactives_sanitized.sdf:67
                    3D
 Schrodinger Suite 2020-1.
 65 70  0  0  1  0            999 V2000
    3.9493   -4.7199    5.8862 N   0  0  0  0  0  0
   -0.0150   -0.1039   -0.0692 C   0  0  0  0  0  0
    5.2688   -4.9638    6.2179 C   0  0  0  0  0  0
   -0.8887    1.0373    0.0537 C   0  0  0  0  0  0
    2.1826   -1.2244    0.5934 C   0  0  0  0  0  0
    5.4450   -5.8233    7.1853 N   0  0  0  0  0  0
    1.5103   -0.0670   -0.1830 C   0  0  1  0  0  0
   -0.8602   -1.2035   -0.0999 C   0  0  0  0  0  0
    3.4993   -3.8093    4.9031 C   0  0  0  0  0  0
   -2.1672   -0.8098    0.0127 N   0  0  0  0  0  0
    3.2041   -5.5168    6.7470 C   0  0  0  0  0  0
    2.0638   -1.1692    1.9390 N   0  0  0  0  0  0
   -0.6715    2.4233    0.1164 C   0  0  0  0  0  0
    2.3381   -3.0530    5.1017 C   0  0  0  0  0  0
   -1.5271    4.7577    0.2421 C   0  0  0  0  0  0
   -1.7534    3.3108    0.2088 C   0  0  0  0  0  0
    2.5729   -2.0671    2.8970 C   0  0  0  0  0  0
   -2.2315    0.5618    0.1018 C   0  0  0  0  0  0
    1.8814   -2.1834    4.1102 C   0  0  0  0  0  0
    4.1765   -6.1878    7.5393 C   0  0  0  0  0  0
   -2.3739    5.5329    0.9092 N   0  3  0  0  0  0
    1.9647    0.0175   -1.6684 C   0  0  0  0  0  0
    2.7436   -2.1374   -0.0161 O   0  0  0  0  0  0
    4.1900   -3.6961    3.6910 C   0  0  0  0  0  0
    3.7362   -2.8287    2.6985 C   0  0  0  0  0  0
   -3.0527    2.7887    0.2608 C   0  0  0  0  0  0
   -3.3250    1.4225    0.2128 C   0  0  0  0  0  0
   -0.4807    5.2646   -0.4001 N   0  0  0  0  0  0
    0.7603   -1.4576    4.3384 F   0  0  0  0  0  0
    1.5283    1.2982   -2.3722 C   0  0  0  0  0  0
    1.8312   -5.7453    6.9226 C   0  0  0  0  0  0
    3.7719   -7.0920    8.5319 C   0  0  0  0  0  0
    0.3991    1.2965   -3.1964 C   0  0  0  0  0  0
    2.2505    2.4790   -2.1767 C   0  0  0  0  0  0
    1.4621   -6.6504    7.9204 C   0  0  0  0  0  0
    2.4058   -7.3081    8.7084 C   0  0  0  0  0  0
    1.8405    3.6559   -2.7974 C   0  0  0  0  0  0
   -0.0114    2.4741   -3.8155 C   0  0  0  0  0  0
    0.7107    3.6483   -3.6128 C   0  0  0  0  0  0
    6.0590   -4.4440    5.6953 H   0  0  0  0  0  0
    1.8749    0.8379    0.3073 H   0  0  0  0  0  0
   -0.6312   -2.2556   -0.1931 H   0  0  0  0  0  0
   -2.9352   -1.4659    0.0136 H   0  0  0  0  0  0
    1.4600   -0.4505    2.3107 H   0  0  0  0  0  0
    0.3370    2.8070    0.0832 H   0  0  0  0  0  0
    1.7922   -3.1155    6.0314 H   0  0  0  0  0  0
   -2.2303    6.5318    0.9338 H   0  0  0  0  0  0
    3.0536   -0.0359   -1.7353 H   0  0  0  0  0  0
    1.6080   -0.8492   -2.2291 H   0  0  0  0  0  0
    5.0809   -4.2792    3.5072 H   0  0  0  0  0  0
    4.3098   -2.7531    1.7874 H   0  0  0  0  0  0
   -3.8912    3.4662    0.3259 H   0  0  0  0  0  0
   -4.3407    1.0560    0.2473 H   0  0  0  0  0  0
   -0.3144    6.2601   -0.3865 H   0  0  0  0  0  0
    0.1387    4.6504   -0.9088 H   0  0  0  0  0  0
    1.0809   -5.2596    6.3174 H   0  0  0  0  0  0
    4.4950   -7.6108    9.1442 H   0  0  0  0  0  0
   -0.1658    0.3882   -3.3485 H   0  0  0  0  0  0
    3.1235    2.4863   -1.5400 H   0  0  0  0  0  0
    0.4133   -6.8504    8.0847 H   0  0  0  0  0  0
    2.0725   -8.0009    9.4674 H   0  0  0  0  0  0
    2.3954    4.5703   -2.6470 H   0  0  0  0  0  0
   -0.8858    2.4771   -4.4494 H   0  0  0  0  0  0
    0.3923    4.5613   -4.0941 H   0  0  0  0  0  0
   -3.1587    5.1188    1.3906 H   0  0  0  0  0  0
  1  3  1  0  0  0
  1  9  1  0  0  0
  1 11  1  0  0  0
  2  7  1  0  0  0
  2  4  1  0  0  0
  2  8  2  0  0  0
  3  6  2  0  0  0
  3 40  1  0  0  0
  4 13  2  0  0  0
  4 18  1  0  0  0
  5 12  1  0  0  0
  5  7  1  0  0  0
  5 23  2  0  0  0
  6 20  1  0  0  0
  7 22  1  0  0  0
  7 41  1  0  0  0
  8 10  1  0  0  0
  8 42  1  0  0  0
  9 14  2  0  0  0
  9 24  1  0  0  0
 10 18  1  0  0  0
 10 43  1  0  0  0
 11 20  2  0  0  0
 11 31  1  0  0  0
 12 17  1  0  0  0
 12 44  1  0  0  0
 13 16  1  0  0  0
 13 45  1  0  0  0
 14 19  1  0  0  0
 14 46  1  0  0  0
 15 16  1  0  0  0
 15 21  2  0  0  0
 15 28  1  0  0  0
 16 26  2  0  0  0
 17 25  1  0  0  0
 17 19  2  0  0  0
 18 27  2  0  0  0
 19 29  1  0  0  0
 20 32  1  0  0  0
 21 47  1  0  0  0
 21 65  1  0  0  0
 22 30  1  0  0  0
 22 48  1  0  0  0
 22 49  1  0  0  0
 24 25  2  0  0  0
 24 50  1  0  0  0
 25 51  1  0  0  0
 26 27  1  0  0  0
 26 52  1  0  0  0
 27 53  1  0  0  0
 28 54  1  0  0  0
 28 55  1  0  0  0
 30 33  2  0  0  0
 30 34  1  0  0  0
 31 35  2  0  0  0
 31 56  1  0  0  0
 32 36  2  0  0  0
 32 57  1  0  0  0
 33 38  1  0  0  0
 33 58  1  0  0  0
 34 37  2  0  0  0
 34 59  1  0  0  0
 35 36  1  0  0  0
 35 60  1  0  0  0
 36 61  1  0  0  0
 37 39  1  0  0  0
 37 62  1  0  0  0
 38 39  2  0  0  0
 38 63  1  0  0  0
 39 64  1  0  0  0
M  CHG  1  21   1
M  END
> <chembl_id>
CHEMBL2096790

> <chembl_pref_name>
None

> <i_m_ct_stereo_status>
1

> <s_m_source_file>
sdf/inactives_sanitized.sdf

> <i_m_source_file_index>
67

> <i_lp_mmshare_version>
49012

> <i_f3d_flags>
0

> <s_epik_input>
W2NIXTFbY0hdW2NIXVtjSF1jKGMxMiluW2NIXW4yLWMzW2NIXWMoRiljKFtjSF1bY0hdMylbTkhdQyg9TylbQ0BASF0oW0NIMl1jNFtjSF1bY0hdW2NIXVtjSF1bY0hdNCljNVtjSF1bbkhdYyhjNTYpW2NIXVtjSF1jKFtjSF02KS9DKD1OL1tIXSlbTkgyXQ==

> <s_epik_cmdline>
J2VwaWtfcHl0aG9uJywgJy1waHQnLCAnMC41JywgJy1waCcsICc3LjUnLCAnLW50JywgJy1tYScsICcyMDAnLCAnLWltYWUnLCAnPGluZmlsZS5tYWU+JywgJy1vbWFlJywgJzxvdXRmaWxlLm1hZT4n

> <r_epik_Ionization_Penalty>
  0.0112

> <r_epik_Ionization_Penalty_Charging>
  0.0010

> <r_epik_Ionization_Penalty_Neutral>
  0.0102

> <r_epik_State_Penalty>
  0.0078

> <r_epik_Charging_Adjusted_Penalty>
0.00877873498810205

> <i_epik_Tot_Q>
1

> <i_epik_Tot_abs_Q>
1

> <s_epik_Chemistry_Notes>
This compound has an imine and may undergo hydrolysis.

> <s_lp_Force_Field>
OPLS3e

> <r_lp_Energy>
50.780096

> <b_lp_Chiralities_Consistent>
1

> <s_lp_Variant>
sdf/inactives_sanitized.sdf:67-1

$$$$
sdf/inactives_sanitized.sdf:68
                    3D
 Schrodinger Suite 2020-1.
 68 73  0  0  1  0            999 V2000
   -0.0781   -0.1219    0.0244 C   0  0  0  0  0  0
   -0.8331   -1.1573    0.5885 C   0  0  0  0  0  0
   -2.2252   -1.0816    0.5982 C   0  0  0  0  0  0
   -2.8887    0.0277    0.0589 C   0  0  0  0  0  0
   -2.1253    1.0532   -0.5131 C   0  0  0  0  0  0
   -0.7320    0.9871   -0.5321 C   0  0  0  0  0  0
   -4.3754    0.1135    0.0662 C   0  0  0  0  0  0
   -5.1389    0.1038    1.2550 C   0  0  0  0  0  0
   -6.5343    0.1972    1.1843 C   0  0  0  0  0  0
   -7.1798    0.2917   -0.0458 C   0  0  0  0  0  0
   -6.4337    0.3055   -1.2200 C   0  0  0  0  0  0
   -5.0446    0.2219   -1.1609 C   0  0  0  0  0  0
    1.3296   -0.2078    0.0139 N   0  0  0  0  0  0
    4.9978   -2.7011   -5.0933 C   0  0  0  0  0  0
    3.4902   -3.3661   -2.8431 C   0  0  0  0  0  0
    4.3083   -2.2337   -2.8279 C   0  0  0  0  0  0
    5.0684   -1.9041   -3.9544 C   0  0  0  0  0  0
    4.3818   -1.4338   -1.6669 N   0  0  0  0  0  0
    5.3770   -0.4066   -0.0679 C   0  0  0  0  0  0
    5.5871   -1.1369   -1.1470 N   0  0  0  0  0  0
    3.4231   -4.1596   -3.9845 C   0  0  0  0  0  0
    4.1787   -3.8310   -5.1215 C   0  0  0  0  0  0
    4.1749   -4.5602   -6.2954 O   0  0  0  0  0  0
    3.3615   -5.7252   -6.3866 C   0  0  0  0  0  0
    6.4443    0.0652    0.7735 C   0  0  0  0  0  0
    3.9917   -0.2408    0.1533 C   0  0  0  0  0  0
    3.3684   -0.8924   -0.9061 C   0  0  0  0  0  0
    1.9107   -0.8935   -1.0545 C   0  0  0  0  0  0
    2.0192    0.4057    1.0596 C   0  0  0  0  0  0
    3.3055    0.4028    1.1438 N   0  0  0  0  0  0
    1.2716   -1.4063   -1.9773 O   0  0  0  0  0  0
    7.3838   -0.6565    1.1038 O   0  0  0  0  0  0
    6.3522    1.3509    1.1276 N   0  0  0  0  0  0
   -4.4926    0.0644    2.6383 C   0  0  0  0  0  0
   -4.2907   -1.3600    3.1958 N   0  3  0  0  0  0
   -3.4716   -1.4016    4.4941 C   0  0  0  0  0  0
   -3.7612   -2.7941    5.0455 C   0  0  0  0  0  0
   -5.2028   -3.1093    4.6427 C   0  0  0  0  0  0
   -5.5914   -2.1095    3.5457 C   0  0  0  0  0  0
   -0.0256    1.9995   -1.0888 F   0  0  0  0  0  0
   -0.3426   -2.0233    1.0098 H   0  0  0  0  0  0
   -2.7895   -1.9006    1.0181 H   0  0  0  0  0  0
   -2.6161    1.9148   -0.9430 H   0  0  0  0  0  0
   -7.1265    0.2040    2.0879 H   0  0  0  0  0  0
   -8.2568    0.3630   -0.0881 H   0  0  0  0  0  0
   -6.9304    0.3838   -2.1760 H   0  0  0  0  0  0
   -4.4824    0.2355   -2.0839 H   0  0  0  0  0  0
    5.5840   -2.4394   -5.9622 H   0  0  0  0  0  0
    2.9082   -3.6382   -1.9742 H   0  0  0  0  0  0
    5.7087   -1.0333   -3.9539 H   0  0  0  0  0  0
    2.7803   -5.0263   -3.9670 H   0  0  0  0  0  0
    3.4820   -6.1724   -7.3732 H   0  0  0  0  0  0
    2.3046   -5.4855   -6.2600 H   0  0  0  0  0  0
    3.6500   -6.4746   -5.6477 H   0  0  0  0  0  0
    1.4319    0.9048    1.8264 H   0  0  0  0  0  0
    5.5474    1.8981    0.8582 H   0  0  0  0  0  0
    7.0757    1.7737    1.6906 H   0  0  0  0  0  0
   -3.5001    0.5174    2.6386 H   0  0  0  0  0  0
   -5.0911    0.5927    3.3835 H   0  0  0  0  0  0
   -2.4284   -1.1986    4.2476 H   0  0  0  0  0  0
   -3.8540   -0.6002    5.1296 H   0  0  0  0  0  0
   -3.0736   -3.5175    4.6043 H   0  0  0  0  0  0
   -3.6253   -2.8342    6.1270 H   0  0  0  0  0  0
   -5.2971   -4.1376    4.2910 H   0  0  0  0  0  0
   -5.8732   -3.0011    5.4968 H   0  0  0  0  0  0
   -5.9765   -2.5503    2.6253 H   0  0  0  0  0  0
   -6.2936   -1.3634    3.9218 H   0  0  0  0  0  0
   -3.7902   -1.8915    2.4976 H   0  0  0  0  0  0
  1  6  2  0  0  0
  1 13  1  0  0  0
  1  2  1  0  0  0
  2  3  2  0  0  0
  2 41  1  0  0  0
  3  4  1  0  0  0
  3 42  1  0  0  0
  4  7  1  0  0  0
  4  5  2  0  0  0
  5  6  1  0  0  0
  5 43  1  0  0  0
  6 40  1  0  0  0
  7 12  2  0  0  0
  7  8  1  0  0  0
  8 34  1  0  0  0
  8  9  2  0  0  0
  9 10  1  0  0  0
  9 44  1  0  0  0
 10 11  2  0  0  0
 10 45  1  0  0  0
 11 12  1  0  0  0
 11 46  1  0  0  0
 12 47  1  0  0  0
 13 28  1  0  0  0
 13 29  1  0  0  0
 14 22  2  0  0  0
 14 17  1  0  0  0
 14 48  1  0  0  0
 15 21  2  0  0  0
 15 16  1  0  0  0
 15 49  1  0  0  0
 16 17  2  0  0  0
 16 18  1  0  0  0
 17 50  1  0  0  0
 18 27  1  0  0  0
 18 20  1  0  0  0
 19 25  1  0  0  0
 19 26  1  0  0  0
 19 20  2  0  0  0
 21 22  1  0  0  0
 21 51  1  0  0  0
 22 23  1  0  0  0
 23 24  1  0  0  0
 24 52  1  0  0  0
 24 53  1  0  0  0
 24 54  1  0  0  0
 25 32  2  0  0  0
 25 33  1  0  0  0
 26 27  2  0  0  0
 26 30  1  0  0  0
 27 28  1  0  0  0
 28 31  2  0  0  0
 29 30  2  0  0  0
 29 55  1  0  0  0
 33 56  1  0  0  0
 33 57  1  0  0  0
 34 35  1  0  0  0
 34 58  1  0  0  0
 34 59  1  0  0  0
 35 36  1  0  0  0
 35 39  1  0  0  0
 35 68  1  0  0  0
 36 37  1  0  0  0
 36 60  1  0  0  0
 36 61  1  0  0  0
 37 38  1  0  0  0
 37 62  1  0  0  0
 37 63  1  0  0  0
 38 39  1  0  0  0
 38 64  1  0  0  0
 38 65  1  0  0  0
 39 66  1  0  0  0
 39 67  1  0  0  0
M  CHG  1  35   1
M  END
> <chembl_id>
CHEMBL213352

> <chembl_pref_name>
None

> <s_m_source_file>
sdf/inactives_sanitized.sdf

> <i_m_source_file_index>
68

> <i_lp_mmshare_version>
49012

> <i_m_ct_stereo_status>
1

> <i_f3d_flags>
0

> <s_epik_input>
W2NIXTFbY0hdYyhPW0NIM10pW2NIXVtjSF1jMS1uKG5jMkMoPU8pW05IMl0pYyhjMjMpYyg9TyluKFtjSF1uMyktYzRbY0hdW2NIXWMoW2NIXWM0RiktYzVjKFtjSF1bY0hdW2NIXVtjSF01KVtDSDJdTjZbQ0gyXVtDSDJdW0NIMl1bQ0gyXTY=

> <s_epik_cmdline>
J2VwaWtfcHl0aG9uJywgJy1waHQnLCAnMC41JywgJy1waCcsICc3LjUnLCAnLW50JywgJy1tYScsICcyMDAnLCAnLWltYWUnLCAnPGluZmlsZS5tYWU+JywgJy1vbWFlJywgJzxvdXRmaWxlLm1hZT4n

> <r_epik_Ionization_Penalty>
  0.0324

> <r_epik_Ionization_Penalty_Charging>
  0.0321

> <r_epik_Ionization_Penalty_Neutral>
  0.0003

> <r_epik_State_Penalty>
  0.0265

> <r_epik_Charging_Adjusted_Penalty>
0.0585996916421956

> <i_epik_Tot_Q>
1

> <i_epik_Tot_abs_Q>
1

> <s_lp_Force_Field>
OPLS3e

> <r_lp_Energy>
92.998777

> <b_lp_Chiralities_Consistent>
1

> <s_lp_Variant>
sdf/inactives_sanitized.sdf:68-1

$$$$
sdf/inactives_sanitized.sdf:69
                    3D
 Schrodinger Suite 2020-1.
 62 67  0  0  1  0            999 V2000
    0.0936   -0.0441   -0.7470 C   0  0  0  0  0  0
    4.6486   -0.7077    6.8140 N   0  0  0  0  0  0
    4.1564   -1.5507    7.7923 C   0  0  0  0  0  0
   -0.6458    1.0373   -0.1411 C   0  0  0  0  0  0
    4.7801   -1.4891    8.9384 N   0  0  0  0  0  0
    1.8886   -0.8498    0.8293 C   0  0  0  0  0  0
    1.5883   -0.3155   -0.5875 C   0  0  1  0  0  0
   -0.8439   -0.7544   -1.4813 C   0  0  0  0  0  0
   -2.0841   -0.1862   -1.3582 N   0  0  0  0  0  0
    5.7062   -0.0331    7.4120 C   0  0  0  0  0  0
   -0.2917    2.0974    0.7097 C   0  0  0  0  0  0
   -0.8925    4.1130    2.0454 C   0  0  0  0  0  0
   -1.2609    3.0102    1.1526 C   0  0  0  0  0  0
    2.6918   -0.0751    1.5913 N   0  0  0  0  0  0
   -2.0087    0.9185   -0.5411 C   0  0  0  0  0  0
    5.7525   -0.5503    8.7362 C   0  0  0  0  0  0
    4.1253   -0.5612    5.5093 C   0  0  0  0  0  0
    3.6845   -1.3777   -1.7121 C   0  0  0  0  0  0
    2.1470   -1.2541   -1.6926 C   0  0  0  0  0  0
    4.3466   -2.5386   -2.4014 C   0  0  0  0  0  0
    4.3881   -2.4167   -0.8815 C   0  0  0  0  0  0
   -1.7905    4.5845    2.9026 N   0  3  0  0  0  0
    1.3837   -1.9133    1.1940 O   0  0  0  0  0  0
   -2.5864    2.8462    0.7273 C   0  0  0  0  0  0
   -2.9919    1.8144   -0.1177 C   0  0  0  0  0  0
    4.0783    0.6965    4.9000 C   0  0  0  0  0  0
    3.7068   -1.6931    4.8020 C   0  0  0  0  0  0
    3.1524   -0.3008    2.9008 C   0  0  0  0  0  0
    0.3332    4.6201    1.9808 N   0  0  0  0  0  0
    3.5932    0.8235    3.6016 C   0  0  0  0  0  0
    3.2226   -1.5663    3.5031 C   0  0  0  0  0  0
    6.6206    0.9344    6.9699 C   0  0  0  0  0  0
    6.7192   -0.0841    9.6389 C   0  0  0  0  0  0
    7.5699    1.3775    7.8939 C   0  0  0  0  0  0
    7.6198    0.8844    9.1971 C   0  0  0  0  0  0
    3.3062   -2.1826    7.5788 H   0  0  0  0  0  0
    2.1004    0.6410   -0.7150 H   0  0  0  0  0  0
   -0.7282   -1.6398   -2.0899 H   0  0  0  0  0  0
   -2.9023   -0.5621   -1.8159 H   0  0  0  0  0  0
    0.7327    2.1999    1.0345 H   0  0  0  0  0  0
    2.9602    0.8154    1.1998 H   0  0  0  0  0  0
    4.1687   -0.4054   -1.8114 H   0  0  0  0  0  0
    1.8375   -0.8758   -2.6680 H   0  0  0  0  0  0
    1.6952   -2.2448   -1.6095 H   0  0  0  0  0  0
    3.7192   -3.3059   -2.8559 H   0  0  0  0  0  0
    5.2546   -2.3504   -2.9746 H   0  0  0  0  0  0
    5.3222   -2.1394   -0.3929 H   0  0  0  0  0  0
    3.7897   -3.0995   -0.2775 H   0  0  0  0  0  0
   -1.5461    5.3427    3.5226 H   0  0  0  0  0  0
   -3.3376    3.5488    1.0564 H   0  0  0  0  0  0
   -4.0234    1.7198   -0.4256 H   0  0  0  0  0  0
    4.3968    1.5826    5.4286 H   0  0  0  0  0  0
    3.7651   -2.6763    5.2467 H   0  0  0  0  0  0
    0.5968    5.3786    2.5927 H   0  0  0  0  0  0
    0.9942    4.2489    1.3141 H   0  0  0  0  0  0
    3.5568    1.8038    3.1477 H   0  0  0  0  0  0
    2.9284   -2.4631    2.9809 H   0  0  0  0  0  0
    6.6113    1.3229    5.9627 H   0  0  0  0  0  0
    6.7692   -0.4631   10.6493 H   0  0  0  0  0  0
    8.2895    2.1233    7.5892 H   0  0  0  0  0  0
    8.3732    1.2573    9.8756 H   0  0  0  0  0  0
   -2.7133    4.1763    2.9359 H   0  0  0  0  0  0
  1  4  1  0  0  0
  1  7  1  0  0  0
  1  8  2  0  0  0
  2 17  1  0  0  0
  2  3  1  0  0  0
  2 10  1  0  0  0
  3  5  2  0  0  0
  3 36  1  0  0  0
  4 11  2  0  0  0
  4 15  1  0  0  0
  5 16  1  0  0  0
  6  7  1  0  0  0
  6 14  1  0  0  0
  6 23  2  0  0  0
  7 19  1  0  0  0
  7 37  1  0  0  0
  8  9  1  0  0  0
  8 38  1  0  0  0
  9 15  1  0  0  0
  9 39  1  0  0  0
 10 16  2  0  0  0
 10 32  1  0  0  0
 11 13  1  0  0  0
 11 40  1  0  0  0
 12 13  1  0  0  0
 12 22  2  0  0  0
 12 29  1  0  0  0
 13 24  2  0  0  0
 14 28  1  0  0  0
 14 41  1  0  0  0
 15 25  2  0  0  0
 16 33  1  0  0  0
 17 27  2  0  0  0
 17 26  1  0  0  0
 18 19  1  0  0  0
 18 20  1  0  0  0
 18 21  1  0  0  0
 18 42  1  0  0  0
 19 43  1  0  0  0
 19 44  1  0  0  0
 20 21  1  0  0  0
 20 45  1  0  0  0
 20 46  1  0  0  0
 21 47  1  0  0  0
 21 48  1  0  0  0
 22 49  1  0  0  0
 22 62  1  0  0  0
 24 25  1  0  0  0
 24 50  1  0  0  0
 25 51  1  0  0  0
 26 30  2  0  0  0
 26 52  1  0  0  0
 27 31  1  0  0  0
 27 53  1  0  0  0
 28 30  1  0  0  0
 28 31  2  0  0  0
 29 54  1  0  0  0
 29 55  1  0  0  0
 30 56  1  0  0  0
 31 57  1  0  0  0
 32 34  2  0  0  0
 32 58  1  0  0  0
 33 35  2  0  0  0
 33 59  1  0  0  0
 34 35  1  0  0  0
 34 60  1  0  0  0
 35 61  1  0  0  0
M  CHG  1  22   1
M  END
> <chembl_id>
CHEMBL363771

> <chembl_pref_name>
None

> <s_m_source_file>
sdf/inactives_sanitized.sdf

> <i_m_source_file_index>
69

> <i_lp_mmshare_version>
49012

> <i_m_ct_stereo_status>
1

> <i_f3d_flags>
0

> <s_epik_input>
W0hdXE49QyhbTkgyXSlcYyhbY0hdMSlbY0hdW2NIXWMoYzEyKVtuSF1bY0hdYzJbQ0BIXShbQ0gyXVtDSF0zW0NIMl1bQ0gyXTMpQyg9TylbTkhdYyhbY0hdW2NIXTQpW2NIXVtjSF1jNC1uNVtjSF1uYyhjNTYpW2NIXVtjSF1bY0hdW2NIXTY=

> <s_epik_cmdline>
J2VwaWtfcHl0aG9uJywgJy1waHQnLCAnMC41JywgJy1waCcsICc3LjUnLCAnLW50JywgJy1tYScsICcyMDAnLCAnLWltYWUnLCAnPGluZmlsZS5tYWU+JywgJy1vbWFlJywgJzxvdXRmaWxlLm1hZT4n

> <r_epik_Ionization_Penalty>
  0.0112

> <r_epik_Ionization_Penalty_Charging>
  0.0010

> <r_epik_Ionization_Penalty_Neutral>
  0.0102

> <r_epik_State_Penalty>
  0.0078

> <r_epik_Charging_Adjusted_Penalty>
0.00877873498810205

> <i_epik_Tot_Q>
1

> <i_epik_Tot_abs_Q>
1

> <s_epik_Chemistry_Notes>
This compound has an imine and may undergo hydrolysis.

> <s_lp_Force_Field>
OPLS3e

> <r_lp_Energy>
46.786061

> <b_lp_Chiralities_Consistent>
1

> <s_lp_Variant>
sdf/inactives_sanitized.sdf:69-1

$$$$
sdf/inactives_sanitized.sdf:70
                    3D
 Schrodinger Suite 2020-1.
 62 66  0  0  1  0            999 V2000
    1.6583   -0.5118   -1.2611 C   0  0  0  0  0  0
    2.5988    0.0899   -2.1643 C   0  0  0  0  0  0
   -0.0304    0.0336    0.5837 C   0  0  0  0  0  0
    1.4645   -0.0466    0.1884 C   0  0  1  0  0  0
    1.0081   -1.5700   -1.8755 C   0  0  0  0  0  0
    1.4555   -1.8574   -3.5316 S   0  0  0  0  0  0
    3.4886    1.1625   -1.9580 C   0  0  0  0  0  0
    5.2882    2.6915   -2.7319 C   0  0  0  0  0  0
    4.3526    1.5942   -2.9735 C   0  0  0  0  0  0
   -0.7700    0.9204   -0.1201 N   0  0  0  0  0  0
    2.6017   -0.5352   -3.4473 C   0  0  0  0  0  0
    5.5213    3.5671   -3.7027 N   0  3  0  0  0  0
    2.3204   -0.8943    1.1731 C   0  0  0  0  0  0
   -0.4714   -0.6684    1.4958 O   0  0  0  0  0  0
    4.3110    0.9564   -4.2167 C   0  0  0  0  0  0
    3.4479   -0.1027   -4.4748 C   0  0  0  0  0  0
   -6.1617    2.2647    0.2281 O   0  0  0  0  0  0
   -2.1428    1.2019   -0.0038 C   0  0  0  0  0  0
    5.8821    2.7809   -1.5472 N   0  0  0  0  0  0
   -4.8342    1.9173    0.1448 C   0  0  0  0  0  0
    3.8230   -0.7401    0.9638 C   0  0  0  0  0  0
   -6.6125    3.1066    1.2271 C   0  0  0  0  0  0
   -2.5556    2.4679   -0.4261 C   0  0  0  0  0  0
   -3.0913    0.2807    0.4676 C   0  0  0  0  0  0
   -3.8982    2.8273   -0.3489 C   0  0  0  0  0  0
   -4.4336    0.6425    0.5415 C   0  0  0  0  0  0
    4.5226   -1.6680    0.1870 C   0  0  0  0  0  0
    4.4957    0.3431    1.5363 C   0  0  0  0  0  0
   -7.8995    3.6280    1.0819 C   0  0  0  0  0  0
   -5.8612    3.4328    2.3686 C   0  0  0  0  0  0
    5.8631    0.5014    1.3279 C   0  0  0  0  0  0
   -6.3928    4.2780    3.3392 C   0  0  0  0  0  0
   -8.4316    4.4735    2.0521 C   0  0  0  0  0  0
    5.8895   -1.5073   -0.0239 C   0  0  0  0  0  0
   -7.6753    4.7957    3.1762 C   0  0  0  0  0  0
    6.5532   -0.4235    0.5473 C   0  0  0  0  0  0
    1.8071    0.9838    0.2934 H   0  0  0  0  0  0
    0.2619   -2.2079   -1.4239 H   0  0  0  0  0  0
    3.5194    1.6606   -1.0013 H   0  0  0  0  0  0
   -0.2701    1.5142   -0.7652 H   0  0  0  0  0  0
    5.0495    3.4686   -4.5900 H   0  0  0  0  0  0
    2.1048   -0.6131    2.2063 H   0  0  0  0  0  0
    2.0474   -1.9497    1.1099 H   0  0  0  0  0  0
    4.9764    1.2810   -5.0032 H   0  0  0  0  0  0
    3.4422   -0.5835   -5.4425 H   0  0  0  0  0  0
    6.5315    3.5318   -1.3636 H   0  0  0  0  0  0
    5.6856    2.0903   -0.8368 H   0  0  0  0  0  0
   -1.8397    3.1827   -0.8065 H   0  0  0  0  0  0
   -2.8124   -0.7177    0.7672 H   0  0  0  0  0  0
   -4.2129    3.8103   -0.6671 H   0  0  0  0  0  0
   -5.1627   -0.0645    0.9086 H   0  0  0  0  0  0
    4.0073   -2.5053   -0.2613 H   0  0  0  0  0  0
    3.9593    1.0634    2.1372 H   0  0  0  0  0  0
   -8.4881    3.3768    0.2115 H   0  0  0  0  0  0
   -4.8682    3.0338    2.5136 H   0  0  0  0  0  0
    6.3858    1.3373    1.7691 H   0  0  0  0  0  0
   -5.8136    4.5292    4.2157 H   0  0  0  0  0  0
   -9.4269    4.8759    1.9339 H   0  0  0  0  0  0
    6.4326   -2.2196   -0.6274 H   0  0  0  0  0  0
   -8.0876    5.4507    3.9297 H   0  0  0  0  0  0
    7.6142   -0.3011    0.3858 H   0  0  0  0  0  0
    6.1664    4.3287   -3.5505 H   0  0  0  0  0  0
  1  2  1  0  0  0
  1  4  1  0  0  0
  1  5  2  0  0  0
  2  7  2  0  0  0
  2 11  1  0  0  0
  3  4  1  0  0  0
  3 10  1  0  0  0
  3 14  2  0  0  0
  4 13  1  0  0  0
  4 37  1  0  0  0
  5  6  1  0  0  0
  5 38  1  0  0  0
  6 11  1  0  0  0
  7  9  1  0  0  0
  7 39  1  0  0  0
  8  9  1  0  0  0
  8 12  2  0  0  0
  8 19  1  0  0  0
  9 15  2  0  0  0
 10 18  1  0  0  0
 10 40  1  0  0  0
 11 16  2  0  0  0
 12 41  1  0  0  0
 12 62  1  0  0  0
 13 21  1  0  0  0
 13 42  1  0  0  0
 13 43  1  0  0  0
 15 16  1  0  0  0
 15 44  1  0  0  0
 16 45  1  0  0  0
 17 20  1  0  0  0
 17 22  1  0  0  0
 18 23  2  0  0  0
 18 24  1  0  0  0
 19 46  1  0  0  0
 19 47  1  0  0  0
 20 25  2  0  0  0
 20 26  1  0  0  0
 21 27  2  0  0  0
 21 28  1  0  0  0
 22 29  2  0  0  0
 22 30  1  0  0  0
 23 25  1  0  0  0
 23 48  1  0  0  0
 24 26  2  0  0  0
 24 49  1  0  0  0
 25 50  1  0  0  0
 26 51  1  0  0  0
 27 34  1  0  0  0
 27 52  1  0  0  0
 28 31  2  0  0  0
 28 53  1  0  0  0
 29 33  1  0  0  0
 29 54  1  0  0  0
 30 32  2  0  0  0
 30 55  1  0  0  0
 31 36  1  0  0  0
 31 56  1  0  0  0
 32 35  1  0  0  0
 32 57  1  0  0  0
 33 35  2  0  0  0
 33 58  1  0  0  0
 34 36  2  0  0  0
 34 59  1  0  0  0
 35 60  1  0  0  0
 36 61  1  0  0  0
M  CHG  1  12   1
M  END
> <chembl_id>
CHEMBL367575

> <chembl_pref_name>
None

> <s_m_source_file>
sdf/inactives_sanitized.sdf

> <i_m_source_file_index>
70

> <i_lp_mmshare_version>
49012

> <i_m_ct_stereo_status>
1

> <i_f3d_flags>
0

> <s_epik_input>
W0hdXE49QyhbTkgyXSlcYyhbY0hdMSlbY0hdW2NIXWMoYzEyKXNbY0hdYzJbQ0BIXShbQ0gyXWMzW2NIXVtjSF1bY0hdW2NIXVtjSF0zKUMoPU8pW05IXWM0W2NIXVtjSF1jKFtjSF1bY0hdNClPYzVbY0hdW2NIXVtjSF1bY0hdW2NIXTU=

> <s_epik_cmdline>
J2VwaWtfcHl0aG9uJywgJy1waHQnLCAnMC41JywgJy1waCcsICc3LjUnLCAnLW50JywgJy1tYScsICcyMDAnLCAnLWltYWUnLCAnPGluZmlsZS5tYWU+JywgJy1vbWFlJywgJzxvdXRmaWxlLm1hZT4n

> <r_lp_tautomer_probability>
1

> <r_epik_Ionization_Penalty>
  0.0010

> <r_epik_Ionization_Penalty_Charging>
  0.0010

> <r_epik_Ionization_Penalty_Neutral>
  0.0000

> <r_epik_State_Penalty>
 -0.0000

> <r_epik_Charging_Adjusted_Penalty>
0.000984797499885888

> <i_epik_Tot_Q>
1

> <i_epik_Tot_abs_Q>
1

> <s_epik_Chemistry_Notes>
This compound has an imine and may undergo hydrolysis.

> <s_lp_Force_Field>
OPLS3e

> <r_lp_Energy>
51.365013

> <b_lp_Chiralities_Consistent>
1

> <s_lp_Variant>
sdf/inactives_sanitized.sdf:70-1

$$$$
sdf/inactives_sanitized.sdf:71
                    3D
 Schrodinger Suite 2020-1.
 66 69  0  0  1  0            999 V2000
    1.9483   -0.7656   -1.2492 C   0  0  0  0  0  0
    1.8091   -2.1320   -1.6875 C   0  0  0  0  0  0
   -0.1482    0.0051   -0.0452 C   0  0  0  0  0  0
    1.3911   -0.1053    0.0081 C   0  0  1  0  0  0
    2.7244   -0.1678   -2.2378 C   0  0  0  0  0  0
   -2.9339    1.1406   -1.2096 C   0  0  2  0  0  0
   -0.6646    1.2470    0.0214 N   0  0  0  0  0  0
    1.1766   -3.2908   -1.2042 C   0  0  0  0  0  0
    3.0706   -1.0228   -3.2383 O   0  0  0  0  0  0
   -2.0929    1.5909    0.0318 C   0  0  2  0  0  0
   -2.2701    1.5453   -2.5427 C   0  0  0  0  0  0
    0.5863   -5.6950   -1.4335 C   0  0  0  0  0  0
    1.2522   -4.4925   -1.9300 C   0  0  0  0  0  0
    2.5155   -2.2201   -2.9068 C   0  0  0  0  0  0
    1.1789   -6.8728   -1.5905 N   0  3  0  0  0  0
    1.8951   -0.8109    1.2964 C   0  0  0  0  0  0
   -0.8409   -1.0115   -0.1220 O   0  0  0  0  0  0
   -1.9127    0.6905   -3.3556 O   0  0  0  0  0  0
    1.9696   -4.5238   -3.1362 C   0  0  0  0  0  0
    2.6132   -3.3989   -3.6499 C   0  0  0  0  0  0
   -0.5944   -5.5757   -0.8378 N   0  0  0  0  0  0
   -2.1261    2.8833   -2.6856 O   0  0  0  0  0  0
    1.5201   -0.0929    2.5902 C   0  0  0  0  0  0
   -4.3825    1.6829   -1.1482 C   0  0  0  0  0  0
   -2.8162    1.1964    1.3477 C   0  0  0  0  0  0
   -1.5081    3.4253   -3.8447 C   0  0  0  0  0  0
    2.2802    0.9956    3.0266 C   0  0  0  0  0  0
    0.4123   -0.5159    3.3309 C   0  0  0  0  0  0
   -5.0799    1.1970    0.1336 C   0  0  0  0  0  0
   -1.5225    4.9547   -3.7608 C   0  0  0  0  0  0
   -4.2980    1.6277    1.3888 C   0  0  0  0  0  0
    0.0645    0.1494    4.5033 C   0  0  0  0  0  0
    1.9336    1.6589    4.2008 C   0  0  0  0  0  0
    0.8277    1.2328    4.9335 C   0  0  0  0  0  0
    1.7944    0.9097    0.0405 H   0  0  0  0  0  0
    3.0956    0.8402   -2.3546 H   0  0  0  0  0  0
   -2.9871    0.0510   -1.2108 H   0  0  0  0  0  0
   -0.0291    2.0114    0.1980 H   0  0  0  0  0  0
    0.6307   -3.2606   -0.2735 H   0  0  0  0  0  0
   -2.0780    2.6827    0.0068 H   0  0  0  0  0  0
    0.7315   -7.7118   -1.2510 H   0  0  0  0  0  0
    1.5326   -1.8387    1.3457 H   0  0  0  0  0  0
    2.9828   -0.8981    1.2666 H   0  0  0  0  0  0
    2.0226   -5.4454   -3.6972 H   0  0  0  0  0  0
    3.1589   -3.4370   -4.5813 H   0  0  0  0  0  0
   -1.0697   -6.3945   -0.4882 H   0  0  0  0  0  0
   -1.0150   -4.6624   -0.7425 H   0  0  0  0  0  0
   -4.4006    2.7743   -1.1800 H   0  0  0  0  0  0
   -4.9613    1.3183   -1.9990 H   0  0  0  0  0  0
   -2.7797    0.1126    1.4682 H   0  0  0  0  0  0
   -2.2924    1.6203    2.2057 H   0  0  0  0  0  0
   -0.4804    3.0660   -3.9194 H   0  0  0  0  0  0
   -2.0379    3.0979   -4.7409 H   0  0  0  0  0  0
    3.1354    1.3288    2.4567 H   0  0  0  0  0  0
   -0.1833   -1.3528    2.9958 H   0  0  0  0  0  0
   -5.1747    0.1099    0.1143 H   0  0  0  0  0  0
   -6.0957    1.5917    0.1770 H   0  0  0  0  0  0
   -1.0481    5.3947   -4.6381 H   0  0  0  0  0  0
   -0.9857    5.3076   -2.8796 H   0  0  0  0  0  0
   -2.5427    5.3365   -3.7084 H   0  0  0  0  0  0
   -4.3513    2.7129    1.4881 H   0  0  0  0  0  0
   -4.7763    1.2201    2.2804 H   0  0  0  0  0  0
   -0.7931   -0.1724    5.0759 H   0  0  0  0  0  0
    2.5193    2.5000    4.5415 H   0  0  0  0  0  0
    0.5588    1.7475    5.8441 H   0  0  0  0  0  0
    2.0795   -6.9222   -2.0437 H   0  0  0  0  0  0
  1  2  1  0  0  0
  1  4  1  0  0  0
  1  5  2  0  0  0
  2  8  2  0  0  0
  2 14  1  0  0  0
  3  4  1  0  0  0
  3  7  1  0  0  0
  3 17  2  0  0  0
  4 16  1  0  0  0
  4 35  1  0  0  0
  5  9  1  0  0  0
  5 36  1  0  0  0
  6 10  1  0  0  0
  6 11  1  0  0  0
  6 24  1  0  0  0
  6 37  1  0  0  0
  7 10  1  0  0  0
  7 38  1  0  0  0
  8 13  1  0  0  0
  8 39  1  0  0  0
  9 14  1  0  0  0
 10 25  1  0  0  0
 10 40  1  0  0  0
 11 18  2  0  0  0
 11 22  1  0  0  0
 12 13  1  0  0  0
 12 15  2  0  0  0
 12 21  1  0  0  0
 13 19  2  0  0  0
 14 20  2  0  0  0
 15 41  1  0  0  0
 15 66  1  0  0  0
 16 23  1  0  0  0
 16 42  1  0  0  0
 16 43  1  0  0  0
 19 20  1  0  0  0
 19 44  1  0  0  0
 20 45  1  0  0  0
 21 46  1  0  0  0
 21 47  1  0  0  0
 22 26  1  0  0  0
 23 27  2  0  0  0
 23 28  1  0  0  0
 24 29  1  0  0  0
 24 48  1  0  0  0
 24 49  1  0  0  0
 25 31  1  0  0  0
 25 50  1  0  0  0
 25 51  1  0  0  0
 26 30  1  0  0  0
 26 52  1  0  0  0
 26 53  1  0  0  0
 27 33  1  0  0  0
 27 54  1  0  0  0
 28 32  2  0  0  0
 28 55  1  0  0  0
 29 31  1  0  0  0
 29 56  1  0  0  0
 29 57  1  0  0  0
 30 58  1  0  0  0
 30 59  1  0  0  0
 30 60  1  0  0  0
 31 61  1  0  0  0
 31 62  1  0  0  0
 32 34  1  0  0  0
 32 63  1  0  0  0
 33 34  2  0  0  0
 33 64  1  0  0  0
 34 65  1  0  0  0
M  CHG  1  15   1
M  END
> <chembl_id>
CHEMBL180869

> <chembl_pref_name>
None

> <i_m_ct_stereo_status>
1

> <s_m_source_file>
sdf/inactives_sanitized.sdf

> <i_m_source_file_index>
71

> <i_lp_mmshare_version>
49012

> <i_f3d_flags>
0

> <s_epik_input>
W0hdXE49QyhbTkgyXSlcYyhbY0hdMSlbY0hdW2NIXWMoYzEyKW9bY0hdYzJbQ0BIXShbQ0gyXWMzW2NIXVtjSF1bY0hdW2NIXVtjSF0zKUMoPU8pW05IXVtDQEhdKFtDSDJdW0NIMl1bQ0gyXVtDSDJdNClbQ0BASF00Qyg9TylPW0NIMl1bQ0gzXQ==

> <s_epik_cmdline>
J2VwaWtfcHl0aG9uJywgJy1waHQnLCAnMC41JywgJy1waCcsICc3LjUnLCAnLW50JywgJy1tYScsICcyMDAnLCAnLWltYWUnLCAnPGluZmlsZS5tYWU+JywgJy1vbWFlJywgJzxvdXRmaWxlLm1hZT4n

> <r_lp_tautomer_probability>
1

> <r_epik_Ionization_Penalty>
  0.0010

> <r_epik_Ionization_Penalty_Charging>
  0.0010

> <r_epik_Ionization_Penalty_Neutral>
  0.0000

> <r_epik_State_Penalty>
 -0.0000

> <r_epik_Charging_Adjusted_Penalty>
0.000984797499885888

> <i_epik_Tot_Q>
1

> <i_epik_Tot_abs_Q>
1

> <s_epik_Chemistry_Notes>
This compound has an ester and may undergo hydrolysis at high or low pH. This compound has an imine and may undergo hydrolysis.

> <s_lp_Force_Field>
OPLS3e

> <r_lp_Energy>
31.355033

> <b_lp_Chiralities_Consistent>
1

> <s_lp_Variant>
sdf/inactives_sanitized.sdf:71-1

$$$$
sdf/inactives_sanitized.sdf:72
                    3D
 Schrodinger Suite 2020-1.
 66 71  0  0  1  0            999 V2000
    0.0933   -0.1227   -0.1389 N   0  0  0  0  0  0
    1.5069   -0.0702   -0.1003 C   0  0  0  0  0  0
    2.1570    0.2874    1.0856 C   0  0  0  0  0  0
    3.5471    0.3392    1.1225 C   0  0  0  0  0  0
    4.2985    0.0361   -0.0172 C   0  0  0  0  0  0
    3.6412   -0.3319   -1.1957 C   0  0  0  0  0  0
    2.2512   -0.3792   -1.2440 C   0  0  0  0  0  0
   -3.4914   -4.3216    1.2987 C   0  0  0  0  0  0
   -3.4155   -5.7060    1.4594 C   0  0  0  0  0  0
   -2.0168   -4.3847   -0.6467 C   0  0  0  0  0  0
   -2.8012   -3.6649    0.2677 C   0  0  0  0  0  0
   -2.9096   -2.2636    0.1355 N   0  0  0  0  0  0
   -3.9473   -0.3995   -0.0644 C   0  0  0  0  0  0
   -4.1295   -1.6965    0.0959 N   0  0  0  0  0  0
   -1.2810   -6.8710   -1.1550 C   0  0  0  0  0  0
   -1.9264   -5.7786   -0.5028 C   0  0  0  0  0  0
   -2.6240   -6.4039    0.5419 C   0  0  0  0  0  0
   -2.4048   -7.7498    0.5030 O   0  0  0  0  0  0
   -1.5532   -8.0201   -0.5780 N   0  0  0  0  0  0
   -0.4729   -6.7588   -2.2489 N   0  0  0  0  0  0
   -2.5757   -0.1010   -0.1354 C   0  0  0  0  0  0
   -1.9196   -1.3130    0.0108 C   0  0  0  0  0  0
   -0.4600   -1.3958    0.0388 C   0  0  0  0  0  0
   -0.6375    1.0681   -0.3148 C   0  0  0  0  0  0
   -1.9286    1.0850   -0.3016 N   0  0  0  0  0  0
    0.1998   -2.4255    0.2094 O   0  0  0  0  0  0
   -5.1522    0.5232   -0.1453 C   0  0  0  0  0  0
    5.7832    0.0774    0.0389 C   0  0  0  0  0  0
    6.4425   -0.8614    0.8439 C   0  0  0  0  0  0
    7.8318   -0.8746    0.9443 C   0  0  0  0  0  0
    8.5860    0.0605    0.2424 C   0  0  0  0  0  0
    7.9485    1.0071   -0.5558 C   0  0  0  0  0  0
    6.5527    1.0259   -0.6702 C   0  0  0  0  0  0
    5.9212    2.1224   -1.5301 C   0  0  0  0  0  0
    6.3965    2.1440   -3.0012 N   0  3  0  0  0  0
    5.9827    0.8823   -3.7833 C   0  0  0  0  0  0
    5.9387    3.4211   -3.7321 C   0  0  0  0  0  0
   -4.7951    1.7996   -0.2856 F   0  0  0  0  0  0
   -5.9273    0.2100   -1.1838 F   0  0  0  0  0  0
   -5.8961    0.4376    0.9578 F   0  0  0  0  0  0
    0.0845    2.3991   -0.5209 C   0  0  0  0  0  0
    1.5881    0.5233    1.9736 H   0  0  0  0  0  0
    4.0414    0.6162    2.0427 H   0  0  0  0  0  0
    4.2092   -0.5912   -2.0761 H   0  0  0  0  0  0
    1.7555   -0.6638   -2.1611 H   0  0  0  0  0  0
   -4.0942   -3.7526    1.9924 H   0  0  0  0  0  0
   -3.9431   -6.2120    2.2543 H   0  0  0  0  0  0
   -1.4941   -3.8817   -1.4477 H   0  0  0  0  0  0
   -0.2731   -5.8633   -2.6702 H   0  0  0  0  0  0
   -0.0393   -7.5680   -2.6694 H   0  0  0  0  0  0
    5.8714   -1.5936    1.3972 H   0  0  0  0  0  0
    8.3221   -1.6077    1.5681 H   0  0  0  0  0  0
    9.6633    0.0562    0.3221 H   0  0  0  0  0  0
    8.5470    1.7350   -1.0845 H   0  0  0  0  0  0
    4.8332    2.0817   -1.5816 H   0  0  0  0  0  0
    6.1976    3.0989   -1.1290 H   0  0  0  0  0  0
    4.8930    0.8637   -3.8313 H   0  0  0  0  0  0
    6.3802    0.0184   -3.2495 H   0  0  0  0  0  0
    6.4258    0.9591   -4.7770 H   0  0  0  0  0  0
    4.8478    3.4200   -3.7552 H   0  0  0  0  0  0
    6.3627    3.3896   -4.7365 H   0  0  0  0  0  0
    6.3291    4.2732   -3.1740 H   0  0  0  0  0  0
   -0.6071    3.2124   -0.7478 H   0  0  0  0  0  0
    0.7908    2.3404   -1.3494 H   0  0  0  0  0  0
    0.6368    2.6867    0.3738 H   0  0  0  0  0  0
    7.4068    2.1609   -2.9805 H   0  0  0  0  0  0
  1 23  1  0  0  0
  1 24  1  0  0  0
  1  2  1  0  0  0
  2  3  2  0  0  0
  2  7  1  0  0  0
  3  4  1  0  0  0
  3 42  1  0  0  0
  4  5  2  0  0  0
  4 43  1  0  0  0
  5  6  1  0  0  0
  5 28  1  0  0  0
  6  7  2  0  0  0
  6 44  1  0  0  0
  7 45  1  0  0  0
  8 11  2  0  0  0
  8  9  1  0  0  0
  8 46  1  0  0  0
  9 17  2  0  0  0
  9 47  1  0  0  0
 10 16  2  0  0  0
 10 11  1  0  0  0
 10 48  1  0  0  0
 11 12  1  0  0  0
 12 22  1  0  0  0
 12 14  1  0  0  0
 13 27  1  0  0  0
 13 21  1  0  0  0
 13 14  2  0  0  0
 15 19  2  0  0  0
 15 20  1  0  0  0
 15 16  1  0  0  0
 16 17  1  0  0  0
 17 18  1  0  0  0
 18 19  1  0  0  0
 20 49  1  0  0  0
 20 50  1  0  0  0
 21 22  2  0  0  0
 21 25  1  0  0  0
 22 23  1  0  0  0
 23 26  2  0  0  0
 24 25  2  0  0  0
 24 41  1  0  0  0
 27 38  1  0  0  0
 27 39  1  0  0  0
 27 40  1  0  0  0
 28 29  2  0  0  0
 28 33  1  0  0  0
 29 30  1  0  0  0
 29 51  1  0  0  0
 30 31  2  0  0  0
 30 52  1  0  0  0
 31 32  1  0  0  0
 31 53  1  0  0  0
 32 33  2  0  0  0
 32 54  1  0  0  0
 33 34  1  0  0  0
 34 35  1  0  0  0
 34 55  1  0  0  0
 34 56  1  0  0  0
 35 36  1  0  0  0
 35 37  1  0  0  0
 35 66  1  0  0  0
 36 57  1  0  0  0
 36 58  1  0  0  0
 36 59  1  0  0  0
 37 60  1  0  0  0
 37 61  1  0  0  0
 37 62  1  0  0  0
 41 63  1  0  0  0
 41 64  1  0  0  0
 41 65  1  0  0  0
M  CHG  1  35   1
M  END
> <chembl_id>
CHEMBL438647

> <chembl_pref_name>
None

> <s_m_source_file>
sdf/inactives_sanitized.sdf

> <i_m_source_file_index>
72

> <i_lp_mmshare_version>
49012

> <i_m_ct_stereo_status>
1

> <i_f3d_flags>
0

> <s_epik_input>
W05IMl1jMW5vYyhjMTIpW2NIXVtjSF1jKFtjSF0yKS1uKG5jM0MoRikoRilGKWMoYzM0KWMoPU8pbihjKG40KVtDSDNdKS1jNVtjSF1bY0hdYyhbY0hdW2NIXTUpLWM2W2NIXVtjSF1bY0hdW2NIXWM2W0NIMl1OKFtDSDNdKVtDSDNd

> <s_epik_cmdline>
J2VwaWtfcHl0aG9uJywgJy1waHQnLCAnMC41JywgJy1waCcsICc3LjUnLCAnLW50JywgJy1tYScsICcyMDAnLCAnLWltYWUnLCAnPGluZmlsZS5tYWU+JywgJy1vbWFlJywgJzxvdXRmaWxlLm1hZT4n

> <r_epik_Ionization_Penalty>
  0.1405

> <r_epik_Ionization_Penalty_Charging>
  0.1404

> <r_epik_Ionization_Penalty_Neutral>
  0.0000

> <r_epik_State_Penalty>
  0.1298

> <r_epik_Charging_Adjusted_Penalty>
0.270210309294101

> <i_epik_Tot_Q>
1

> <i_epik_Tot_abs_Q>
1

> <s_lp_Force_Field>
OPLS3e

> <r_lp_Energy>
93.115967

> <b_lp_Chiralities_Consistent>
1

> <s_lp_Variant>
sdf/inactives_sanitized.sdf:72-1

$$$$
sdf/inactives_sanitized.sdf:73
                    3D
 Schrodinger Suite 2020-1.
 58 62  0  0  1  0            999 V2000
    7.5963    0.8601   -0.2586 C   0  0  0  0  0  0
    8.6113    1.7967   -0.1317 N   0  0  0  0  0  0
    9.8252    1.2581   -0.3483 N   0  0  0  0  0  0
    9.6336   -0.0178   -0.6008 C   0  0  0  0  0  0
    8.2690   -0.3208   -0.5554 C   0  0  0  0  0  0
    6.1871    1.0682   -0.0134 C   0  0  0  0  0  0
    9.1895    5.1073    1.4361 C   0  0  0  0  0  0
   -0.2138    0.0111   -0.4802 N   0  0  0  0  0  0
   -1.0482   -0.9792    0.0136 C   0  0  0  0  0  0
   10.8115   -0.9304   -0.8885 C   0  0  0  0  0  0
    9.2803    7.2740    2.1206 N   0  0  0  0  0  0
    9.7288    6.0601    2.3511 C   0  0  0  0  0  0
    8.5333    3.1824    0.1354 C   0  0  0  0  0  0
    9.2853    3.7279    1.1886 C   0  0  0  0  0  0
    1.1935    0.0655   -0.5069 C   0  0  0  0  0  0
   -2.3233   -0.6913   -0.1393 N   0  0  0  0  0  0
    5.3866    0.2021   -0.6695 N   0  0  0  0  0  0
    8.4067    7.1926    1.0267 O   0  0  0  0  0  0
    1.9336   -0.1260    0.6649 C   0  0  0  0  0  0
    8.3561    5.8908    0.6225 C   0  0  0  0  0  0
    3.9893    0.1845   -0.5789 C   0  0  0  0  0  0
    3.3274   -0.0785    0.6318 C   0  0  0  0  0  0
   -2.3493    0.4799   -0.7440 C   0  0  0  0  0  0
   -1.0740    0.9542   -0.9884 C   0  0  0  0  0  0
   -0.5733   -2.2965    0.6147 C   0  0  0  0  0  0
    5.7861    1.9596    0.7383 O   0  0  0  0  0  0
    7.7128    3.9946   -0.6616 C   0  0  0  0  0  0
    1.8554    0.3206   -1.7129 C   0  0  0  0  0  0
    3.2489    0.3669   -1.7502 C   0  0  0  0  0  0
    7.6054    5.3671   -0.4345 C   0  0  0  0  0  0
   10.4340   -2.2074   -0.9524 F   0  0  0  0  0  0
   11.3833   -0.6211   -2.0520 F   0  0  0  0  0  0
   11.7424   -0.8361    0.0618 F   0  0  0  0  0  0
   10.6065    5.7686    3.3546 N   0  0  0  0  0  0
   -0.6448   -3.4020   -0.3456 N   0  0  0  0  0  0
    4.0221   -0.2982    1.7736 F   0  0  0  0  0  0
    0.4167   -3.3149   -1.3471 C   0  0  0  0  0  0
   -0.5448   -4.6815    0.3503 C   0  0  0  0  0  0
    7.8279   -1.2955   -0.7073 H   0  0  0  0  0  0
    9.9180    3.1018    1.8016 H   0  0  0  0  0  0
    5.8082   -0.4535   -1.3111 H   0  0  0  0  0  0
    1.4340   -0.3109    1.6052 H   0  0  0  0  0  0
   -3.2764    0.9699   -1.0029 H   0  0  0  0  0  0
   -0.7088    1.8570   -1.4562 H   0  0  0  0  0  0
    0.4313   -2.2376    1.0320 H   0  0  0  0  0  0
   -1.2196   -2.5309    1.4629 H   0  0  0  0  0  0
    7.1468    3.5583   -1.4725 H   0  0  0  0  0  0
    1.2956    0.4682   -2.6255 H   0  0  0  0  0  0
    3.7477    0.5514   -2.6911 H   0  0  0  0  0  0
    6.9726    5.9930   -1.0463 H   0  0  0  0  0  0
   10.9328    4.8269    3.5163 H   0  0  0  0  0  0
   10.9552    6.4856    3.9742 H   0  0  0  0  0  0
    0.3581   -4.1503   -2.0462 H   0  0  0  0  0  0
    1.4070   -3.3240   -0.8880 H   0  0  0  0  0  0
    0.3227   -2.4010   -1.9338 H   0  0  0  0  0  0
   -0.6183   -5.5114   -0.3538 H   0  0  0  0  0  0
   -1.3578   -4.7938    1.0687 H   0  0  0  0  0  0
    0.4001   -4.7749    0.8886 H   0  0  0  0  0  0
  1  2  1  0  0  0
  1  5  2  0  0  0
  1  6  1  0  0  0
  2  3  1  0  0  0
  2 13  1  0  0  0
  3  4  2  0  0  0
  4  5  1  0  0  0
  4 10  1  0  0  0
  5 39  1  0  0  0
  6 17  1  0  0  0
  6 26  2  0  0  0
  7 12  1  0  0  0
  7 14  2  0  0  0
  7 20  1  0  0  0
  8  9  1  0  0  0
  8 15  1  0  0  0
  8 24  1  0  0  0
  9 16  2  0  0  0
  9 25  1  0  0  0
 10 31  1  0  0  0
 10 32  1  0  0  0
 10 33  1  0  0  0
 11 12  2  0  0  0
 11 18  1  0  0  0
 12 34  1  0  0  0
 13 14  1  0  0  0
 13 27  2  0  0  0
 14 40  1  0  0  0
 15 19  2  0  0  0
 15 28  1  0  0  0
 16 23  1  0  0  0
 17 21  1  0  0  0
 17 41  1  0  0  0
 18 20  1  0  0  0
 19 22  1  0  0  0
 19 42  1  0  0  0
 20 30  2  0  0  0
 21 22  2  0  0  0
 21 29  1  0  0  0
 22 36  1  0  0  0
 23 24  2  0  0  0
 23 43  1  0  0  0
 24 44  1  0  0  0
 25 35  1  0  0  0
 25 45  1  0  0  0
 25 46  1  0  0  0
 27 30  1  0  0  0
 27 47  1  0  0  0
 28 29  2  0  0  0
 28 48  1  0  0  0
 29 49  1  0  0  0
 30 50  1  0  0  0
 34 51  1  0  0  0
 34 52  1  0  0  0
 35 37  1  0  0  0
 35 38  1  0  0  0
 37 53  1  0  0  0
 37 54  1  0  0  0
 37 55  1  0  0  0
 38 56  1  0  0  0
 38 57  1  0  0  0
 38 58  1  0  0  0
M  END
> <chembl_id>
CHEMBL558198

> <chembl_pref_name>
RAZAXABAN HYDROCHLORIDE

> <s_m_source_file>
sdf/inactives_sanitized.sdf

> <i_m_source_file_index>
73

> <i_lp_mmshare_version>
49012

> <i_m_ct_stereo_status>
1

> <i_f3d_flags>
0

> <s_epik_input>
W05IMl1jMW5vYyhjMTIpW2NIXVtjSF1jKFtjSF0yKS1uKG5jKFtjSF0zKUMoRikoRilGKWMzQyg9TylbTkhdYyhbY0hdW2NIXTQpYyhGKVtjSF1jNC1uNWMobltjSF1bY0hdNSlbQ0gyXU4oW0NIM10pW0NIM10=

> <s_epik_cmdline>
J2VwaWtfcHl0aG9uJywgJy1waHQnLCAnMC41JywgJy1waCcsICc3LjUnLCAnLW50JywgJy1tYScsICcyMDAnLCAnLWltYWUnLCAnPGluZmlsZS5tYWU+JywgJy1vbWFlJywgJzxvdXRmaWxlLm1hZT4n

> <r_lp_tautomer_probability>
1

> <r_epik_Ionization_Penalty>
  0.3413

> <r_epik_Ionization_Penalty_Charging>
  0.1182

> <r_epik_Ionization_Penalty_Neutral>
  0.2230

> <r_epik_State_Penalty>
 -0.0000

> <r_epik_Charging_Adjusted_Penalty>
0.118204921208455

> <i_epik_Tot_Q>
0

> <i_epik_Tot_abs_Q>
0

> <s_lp_Force_Field>
OPLS3e

> <r_lp_Energy>
48.56702

> <b_lp_Chiralities_Consistent>
1

> <s_lp_Variant>
sdf/inactives_sanitized.sdf:73-1

$$$$
sdf/inactives_sanitized.sdf:74
                    3D
 Schrodinger Suite 2020-1.
 67 72  0  0  1  0            999 V2000
    2.7434   -7.3810   -2.8540 N   0  0  0  0  0  0
   -0.9775   -0.5496    1.4319 C   0  0  0  0  0  0
    1.8810   -8.1397   -3.6223 C   0  0  0  0  0  0
   -1.5024   -1.8853    1.4979 C   0  0  0  0  0  0
    2.3078   -9.3410   -3.9060 N   0  0  0  0  0  0
   -1.1196    0.0868    2.6525 C   0  0  0  0  0  0
   -1.9076   -0.8468    3.8905 S   0  0  0  0  0  0
   -0.3333    0.0458    0.1732 C   0  0  2  0  0  0
    3.8444   -8.1971   -2.6264 C   0  0  0  0  0  0
   -1.5416   -2.8915    0.5113 C   0  0  0  0  0  0
   -2.0798   -5.2004   -0.2376 C   0  0  0  0  0  0
    1.6695   -1.5923    0.1178 C   0  0  0  0  0  0
   -2.0829   -4.1552    0.7849 C   0  0  0  0  0  0
   -2.0486   -2.1941    2.7797 C   0  0  0  0  0  0
    3.5307   -9.4102   -3.2993 C   0  0  0  0  0  0
    2.4949   -6.0734   -2.3809 C   0  0  0  0  0  0
    1.2118   -0.1265    0.1627 C   0  0  0  0  0  0
    1.7398   -2.1412   -1.1142 N   0  0  0  0  0  0
   -3.1298   -6.0063   -0.3411 N   0  3  0  0  0  0
   -0.7232    1.5300   -0.0574 C   0  0  0  0  0  0
    1.8883   -2.1839    1.1749 O   0  0  0  0  0  0
   -2.6170   -4.4048    2.0522 C   0  0  0  0  0  0
   -2.6121   -3.4447    3.0579 C   0  0  0  0  0  0
    1.8946   -5.1352   -3.2264 C   0  0  0  0  0  0
    2.8938   -5.6978   -1.0946 C   0  0  0  0  0  0
   -1.0231   -5.3189   -1.0331 N   0  0  0  0  0  0
    2.0346   -3.4672   -1.4802 C   0  0  0  0  0  0
   -2.2265    1.7802   -0.1372 C   0  0  0  0  0  0
    2.6644   -4.4014   -0.6430 C   0  0  0  0  0  0
    1.6676   -3.8382   -2.7757 C   0  0  0  0  0  0
    5.0574   -8.0291   -1.9428 C   0  0  0  0  0  0
    4.4381  -10.4791   -3.2785 C   0  0  0  0  0  0
   -2.9558    1.2980   -1.2282 C   0  0  0  0  0  0
   -2.8746    2.4896    0.8784 C   0  0  0  0  0  0
    5.9393   -9.1125   -1.9426 C   0  0  0  0  0  0
    5.6397  -10.3097   -2.5916 C   0  0  0  0  0  0
   -4.3290    1.5179   -1.2991 C   0  0  0  0  0  0
   -4.2476    2.7094    0.8069 C   0  0  0  0  0  0
   -4.9685    2.2224   -0.2812 C   0  0  0  0  0  0
    0.9289   -7.7292   -3.9256 H   0  0  0  0  0  0
   -0.8011    1.0913    2.8898 H   0  0  0  0  0  0
   -0.7150   -0.4813   -0.7029 H   0  0  0  0  0  0
   -1.1388   -2.6997   -0.4712 H   0  0  0  0  0  0
    1.6358    0.3924   -0.6993 H   0  0  0  0  0  0
    1.6504    0.3589    1.0364 H   0  0  0  0  0  0
    1.4741   -1.5443   -1.8839 H   0  0  0  0  0  0
   -3.9171   -5.8844    0.2792 H   0  0  0  0  0  0
   -0.2778    2.1620    0.7131 H   0  0  0  0  0  0
   -0.2834    1.8828   -0.9918 H   0  0  0  0  0  0
   -3.0343   -5.3767    2.2707 H   0  0  0  0  0  0
   -3.0228   -3.6679    4.0322 H   0  0  0  0  0  0
    1.6048   -5.4017   -4.2329 H   0  0  0  0  0  0
    3.3657   -6.4064   -0.4300 H   0  0  0  0  0  0
   -1.0000   -6.0416   -1.7372 H   0  0  0  0  0  0
   -0.2368   -4.6956   -0.9167 H   0  0  0  0  0  0
    2.9923   -4.1502    0.3533 H   0  0  0  0  0  0
    1.1954   -3.1274   -3.4393 H   0  0  0  0  0  0
    5.3173   -7.1086   -1.4421 H   0  0  0  0  0  0
    4.2179  -11.4092   -3.7820 H   0  0  0  0  0  0
   -2.4615    0.7519   -2.0184 H   0  0  0  0  0  0
   -2.3192    2.8677    1.7244 H   0  0  0  0  0  0
    6.8840   -9.0193   -1.4268 H   0  0  0  0  0  0
    6.3540  -11.1197   -2.5644 H   0  0  0  0  0  0
   -4.8957    1.1447   -2.1393 H   0  0  0  0  0  0
   -4.7511    3.2547    1.5915 H   0  0  0  0  0  0
   -6.0336    2.3935   -0.3366 H   0  0  0  0  0  0
   -3.1385   -6.7350   -1.0397 H   0  0  0  0  0  0
  1  3  1  0  0  0
  1  9  1  0  0  0
  1 16  1  0  0  0
  2  8  1  0  0  0
  2  4  1  0  0  0
  2  6  2  0  0  0
  3  5  2  0  0  0
  3 40  1  0  0  0
  4 10  2  0  0  0
  4 14  1  0  0  0
  5 15  1  0  0  0
  6  7  1  0  0  0
  6 41  1  0  0  0
  7 14  1  0  0  0
  8 17  1  0  0  0
  8 20  1  0  0  0
  8 42  1  0  0  0
  9 15  2  0  0  0
  9 31  1  0  0  0
 10 13  1  0  0  0
 10 43  1  0  0  0
 11 13  1  0  0  0
 11 19  2  0  0  0
 11 26  1  0  0  0
 12 18  1  0  0  0
 12 17  1  0  0  0
 12 21  2  0  0  0
 13 22  2  0  0  0
 14 23  2  0  0  0
 15 32  1  0  0  0
 16 24  2  0  0  0
 16 25  1  0  0  0
 17 44  1  0  0  0
 17 45  1  0  0  0
 18 27  1  0  0  0
 18 46  1  0  0  0
 19 47  1  0  0  0
 19 67  1  0  0  0
 20 28  1  0  0  0
 20 48  1  0  0  0
 20 49  1  0  0  0
 22 23  1  0  0  0
 22 50  1  0  0  0
 23 51  1  0  0  0
 24 30  1  0  0  0
 24 52  1  0  0  0
 25 29  2  0  0  0
 25 53  1  0  0  0
 26 54  1  0  0  0
 26 55  1  0  0  0
 27 29  1  0  0  0
 27 30  2  0  0  0
 28 33  2  0  0  0
 28 34  1  0  0  0
 29 56  1  0  0  0
 30 57  1  0  0  0
 31 35  2  0  0  0
 31 58  1  0  0  0
 32 36  2  0  0  0
 32 59  1  0  0  0
 33 37  1  0  0  0
 33 60  1  0  0  0
 34 38  2  0  0  0
 34 61  1  0  0  0
 35 36  1  0  0  0
 35 62  1  0  0  0
 36 63  1  0  0  0
 37 39  2  0  0  0
 37 64  1  0  0  0
 38 39  1  0  0  0
 38 65  1  0  0  0
 39 66  1  0  0  0
M  CHG  1  19   1
M  END
> <chembl_id>
CHEMBL184896

> <chembl_pref_name>
None

> <s_m_source_file>
sdf/inactives_sanitized.sdf

> <i_m_source_file_index>
74

> <i_lp_mmshare_version>
49012

> <i_m_ct_stereo_status>
1

> <i_f3d_flags>
0

> <s_epik_input>
W2NIXTFbY0hdW2NIXVtjSF1jKGMxMiluW2NIXW4yLWMzW2NIXVtjSF1jKFtjSF1bY0hdMylbTkhdQyg9TylbQ0gyXVtDQEhdKFtDSDJdYzRbY0hdW2NIXVtjSF1bY0hdW2NIXTQpYzVbY0hdc2MoYzU2KVtjSF1bY0hdYyhbY0hdNikvQyg9Ti9bSF0pW05IMl0=

> <s_epik_cmdline>
J2VwaWtfcHl0aG9uJywgJy1waHQnLCAnMC41JywgJy1waCcsICc3LjUnLCAnLW50JywgJy1tYScsICcyMDAnLCAnLWltYWUnLCAnPGluZmlsZS5tYWU+JywgJy1vbWFlJywgJzxvdXRmaWxlLm1hZT4n

> <r_epik_Ionization_Penalty>
  0.0112

> <r_epik_Ionization_Penalty_Charging>
  0.0010

> <r_epik_Ionization_Penalty_Neutral>
  0.0102

> <r_epik_State_Penalty>
  0.0078

> <r_epik_Charging_Adjusted_Penalty>
0.00877873498810205

> <i_epik_Tot_Q>
1

> <i_epik_Tot_abs_Q>
1

> <s_epik_Chemistry_Notes>
This compound has an imine and may undergo hydrolysis.

> <s_lp_Force_Field>
OPLS3e

> <r_lp_Energy>
46.838453

> <b_lp_Chiralities_Consistent>
1

> <s_lp_Variant>
sdf/inactives_sanitized.sdf:74-1

$$$$
 
                    3D
 Schrodinger Suite 2020-1.
 75 79  0  0  1  0            999 V2000
   -1.9630    1.5963   -0.9710 C   0  0  0  0  0  0
   -2.5129    2.2827   -2.2333 C   0  0  0  0  0  0
   -3.2386    1.0412   -2.6259 O   0  0  0  0  0  0
   -2.7636    0.3520   -1.3928 C   0  0  0  0  0  0
   -0.4317    1.3953   -0.9926 C   0  0  0  0  0  0
   -0.0549    0.5349    0.0738 O   0  0  0  0  0  0
    1.3473    0.4586    0.1378 N   0  0  0  0  0  0
    1.7114   -0.2802    1.1075 C   0  0  0  0  0  0
    3.1659   -0.5966    1.5025 C   0  0  1  0  0  0
    3.7317    0.4163    2.5397 C   0  0  0  0  0  0
    2.8882    0.5556    3.8345 C   0  0  0  0  0  0
    2.2059   -0.7675    4.3168 C   0  0  2  0  0  0
    1.7890   -1.7120    3.1203 C   0  0  2  0  0  0
    1.2822   -3.0752    3.6576 C   0  0  0  0  0  0
    0.2739   -2.9495    4.8087 C   0  0  0  0  0  0
    0.8238   -2.0994    5.9977 C   0  0  1  0  0  0
    1.1684   -0.6340    5.5135 C   0  0  1  0  0  0
    1.8861    0.0779    6.7003 C   0  0  0  0  0  0
    1.0643    0.1423    7.9953 C   0  0  0  0  0  0
    0.5922   -1.2494    8.4563 C   0  0  0  0  0  0
    0.0166   -2.2204    7.3650 C   0  0  2  0  0  0
    0.1431   -3.6689    7.9298 C   0  0  0  0  0  0
   -1.5149   -1.9651    7.1487 C   0  0  0  0  0  0
   -1.9766   -0.8051    7.6785 O   0  0  0  0  0  0
   -3.3431   -0.4360    7.5544 C   0  0  0  0  0  0
   -3.5559    0.9354    8.2022 C   0  0  0  0  0  0
   -2.2291   -2.7915    6.5724 O   0  0  0  0  0  0
   -0.1027    0.1654    5.0893 C   0  0  0  0  0  0
    3.0079   -1.9433    2.2185 C   0  0  0  0  0  0
    0.8252   -1.0492    2.1030 C   0  0  0  0  0  0
    4.1324   -0.7181    0.3004 C   0  0  0  0  0  0
   -2.4439    2.2386    0.3474 C   0  0  0  0  0  0
   -3.2443    3.0769   -2.0738 H   0  0  0  0  0  0
   -1.7848    2.5262   -3.0087 H   0  0  0  0  0  0
   -3.6295    0.1028   -0.7774 H   0  0  0  0  0  0
   -2.1803   -0.5244   -1.6795 H   0  0  0  0  0  0
   -0.1216    0.9565   -1.9441 H   0  0  0  0  0  0
    0.0615    2.3669   -0.9091 H   0  0  0  0  0  0
    4.7383    0.1052    2.8246 H   0  0  0  0  0  0
    3.8538    1.3994    2.0811 H   0  0  0  0  0  0
    3.4804    1.0169    4.6246 H   0  0  0  0  0  0
    2.1090    1.2808    3.6048 H   0  0  0  0  0  0
    3.0399   -1.3313    4.7423 H   0  0  0  0  0  0
    0.9078   -3.7087    2.8521 H   0  0  0  0  0  0
    2.1387   -3.6237    4.0551 H   0  0  0  0  0  0
   -0.6980   -2.6053    4.4586 H   0  0  0  0  0  0
    0.0858   -3.9660    5.1509 H   0  0  0  0  0  0
    1.7916   -2.5501    6.2314 H   0  0  0  0  0  0
    2.8334   -0.4197    6.9169 H   0  0  0  0  0  0
    2.1518    1.0983    6.4235 H   0  0  0  0  0  0
    1.6661    0.5992    8.7822 H   0  0  0  0  0  0
    0.2082    0.8053    7.8794 H   0  0  0  0  0  0
    1.5318   -1.7058    8.7753 H   0  0  0  0  0  0
    0.0312   -1.2632    9.3927 H   0  0  0  0  0  0
    1.1876   -3.9434    8.0842 H   0  0  0  0  0  0
   -0.2821   -4.4308    7.2761 H   0  0  0  0  0  0
   -0.3503   -3.7692    8.8985 H   0  0  0  0  0  0
   -3.6249   -0.3969    6.5008 H   0  0  0  0  0  0
   -3.9760   -1.1812    8.0388 H   0  0  0  0  0  0
   -4.5980    1.2439    8.1200 H   0  0  0  0  0  0
   -2.9437    1.6985    7.7202 H   0  0  0  0  0  0
   -3.2971    0.9158    9.2613 H   0  0  0  0  0  0
   -0.6825    0.5251    5.9333 H   0  0  0  0  0  0
   -0.7984   -0.4206    4.4943 H   0  0  0  0  0  0
    0.1436    1.0566    4.5153 H   0  0  0  0  0  0
    3.9026   -2.2293    2.7757 H   0  0  0  0  0  0
    2.8225   -2.7510    1.5046 H   0  0  0  0  0  0
    0.2642   -1.8072    1.5541 H   0  0  0  0  0  0
    0.0919   -0.3855    2.5486 H   0  0  0  0  0  0
    5.1248   -1.0402    0.6187 H   0  0  0  0  0  0
    4.2505    0.2354   -0.2166 H   0  0  0  0  0  0
    3.7770   -1.4440   -0.4326 H   0  0  0  0  0  0
   -2.2088    1.6082    1.2056 H   0  0  0  0  0  0
   -3.5229    2.3986    0.3485 H   0  0  0  0  0  0
   -1.9695    3.2072    0.5094 H   0  0  0  0  0  0
  1  2  1  0  0  0
  1  4  1  0  0  0
  1  5  1  0  0  0
  1 32  1  0  0  0
  2  3  1  0  0  0
  2 33  1  0  0  0
  2 34  1  0  0  0
  3  4  1  0  0  0
  4 35  1  0  0  0
  4 36  1  0  0  0
  5  6  1  0  0  0
  5 37  1  0  0  0
  5 38  1  0  0  0
  6  7  1  0  0  0
  7  8  2  0  0  0
  8  9  1  0  0  0
  8 30  1  0  0  0
  9 10  1  0  0  0
  9 29  1  0  0  0
  9 31  1  0  0  0
 10 11  1  0  0  0
 10 39  1  0  0  0
 10 40  1  0  0  0
 11 12  1  0  0  0
 11 41  1  0  0  0
 11 42  1  0  0  0
 12 13  1  0  0  0
 12 17  1  0  0  0
 12 43  1  0  0  0
 13 14  1  0  0  0
 13 29  1  0  0  0
 13 30  1  0  0  0
 14 15  1  0  0  0
 14 44  1  0  0  0
 14 45  1  0  0  0
 15 16  1  0  0  0
 15 46  1  0  0  0
 15 47  1  0  0  0
 16 17  1  0  0  0
 16 21  1  0  0  0
 16 48  1  0  0  0
 17 18  1  0  0  0
 17 28  1  0  0  0
 18 19  1  0  0  0
 18 49  1  0  0  0
 18 50  1  0  0  0
 19 20  1  0  0  0
 19 51  1  0  0  0
 19 52  1  0  0  0
 20 21  1  0  0  0
 20 53  1  0  0  0
 20 54  1  0  0  0
 21 22  1  0  0  0
 21 23  1  0  0  0
 22 55  1  0  0  0
 22 56  1  0  0  0
 22 57  1  0  0  0
 23 24  1  0  0  0
 23 27  2  0  0  0
 24 25  1  0  0  0
 25 26  1  0  0  0
 25 58  1  0  0  0
 25 59  1  0  0  0
 26 60  1  0  0  0
 26 61  1  0  0  0
 26 62  1  0  0  0
 28 63  1  0  0  0
 28 64  1  0  0  0
 28 65  1  0  0  0
 29 66  1  0  0  0
 29 67  1  0  0  0
 30 68  1  0  0  0
 30 69  1  0  0  0
 31 70  1  0  0  0
 31 71  1  0  0  0
 31 72  1  0  0  0
 32 73  1  0  0  0
 32 74  1  0  0  0
 32 75  1  0  0  0
M  END
> <chembl_id>
CHEMBL4435573

> <chembl_pref_name>
None

> <i_m_ct_stereo_status>
1

> <s_m_source_file>
sdf/inactives_sanitized.sdf

> <i_m_source_file_index>
75

> <i_lp_mmshare_version>
49012

> <i_f3d_flags>
0

> <s_epik_input>
W0NIMl0xT1tDSDJdQzEoW0NIM10pW0NIMl1PL049QyhbQ0gyXTIpL1tDQEBdKFtDSDJdMykoW0NIM10pW0NIMl1bQ0gyXVtDQEhdKFtDQEBdMjM0KVtDQEBdNShbQ0gzXSlbQ0BIXShbQ0gyXVtDSDJdNClbQ0BAXShbQ0gzXSkoW0NIMl1bQ0gyXVtDSDJdNSlDKD1PKU9bQ0gyXVtDSDNd

> <s_epik_cmdline>
J2VwaWtfcHl0aG9uJywgJy1waHQnLCAnMC41JywgJy1waCcsICc3LjUnLCAnLW50JywgJy1tYScsICcyMDAnLCAnLWltYWUnLCAnPGluZmlsZS5tYWU+JywgJy1vbWFlJywgJzxvdXRmaWxlLm1hZT4n

> <r_lp_tautomer_probability>
1

> <r_epik_Ionization_Penalty>
  0.0000

> <r_epik_Ionization_Penalty_Charging>
  0.0000

> <r_epik_Ionization_Penalty_Neutral>
  0.0000

> <r_epik_State_Penalty>
 -0.0000

> <r_epik_Charging_Adjusted_Penalty>
0

> <i_epik_Tot_Q>
0

> <i_epik_Tot_abs_Q>
0

> <s_epik_Chemistry_Notes>
This compound has an ester and may undergo hydrolysis at high or low pH. This compound has an imine and may undergo hydrolysis.

> <s_lp_Force_Field>
OPLS3e

> <r_lp_Energy>
56.516694

> <b_lp_Chiralities_Consistent>
1

> <s_lp_Variant>
 -1

$$$$
sdf/inactives_sanitized.sdf:76
                    3D
 Schrodinger Suite 2020-1.
 39 41  0  0  1  0            999 V2000
    2.2181    1.0086   -0.3840 C   0  0  0  0  0  0
    3.6135    0.6584   -0.2343 C   0  0  0  0  0  0
    4.2801   -0.5109    0.1559 C   0  0  0  0  0  0
    5.6635   -0.2228    0.0852 C   0  0  0  0  0  0
    5.8582    1.0168   -0.3175 N   0  0  0  0  0  0
    4.6399    1.5241   -0.5120 N   0  0  0  0  0  0
    3.7529   -1.6109    0.5182 O   0  5  0  0  0  0
    6.8347   -1.1083    0.3984 C   0  0  0  0  0  0
    8.0008   -0.5661    0.9557 C   0  0  0  0  0  0
    9.0896   -1.3840    1.2463 C   0  0  0  0  0  0
    9.0181   -2.7481    0.9780 C   0  0  0  0  0  0
    7.8682   -3.3001    0.4198 C   0  0  0  0  0  0
    6.7795   -2.4814    0.1299 C   0  0  0  0  0  0
   -2.8595    0.0252   -0.0018 C   0  0  0  0  0  0
   -2.1123   -1.1423   -0.2271 C   0  0  0  0  0  0
   -0.7200   -1.1123   -0.2260 C   0  0  0  0  0  0
   -2.1674    1.2240    0.2323 C   0  0  0  0  0  0
   -0.7758    1.2589    0.2344 C   0  0  0  0  0  0
   -0.0463    0.0888   -0.0094 C   0  0  0  0  0  0
   -4.3243   -0.0059   -0.0066 C   0  0  0  0  0  0
   -4.9889    1.0385   -0.4857 N   0  3  0  0  0  0
   -4.9491   -1.0766    0.4680 N   0  0  0  0  0  0
    1.3572    0.0416   -0.0013 N   0  0  0  0  0  0
    1.8875    2.1106   -0.8281 O   0  0  0  0  0  0
    4.5068    2.4734   -0.8308 H   0  0  0  0  0  0
    8.0660    0.4906    1.1704 H   0  0  0  0  0  0
    9.9850   -0.9616    1.6778 H   0  0  0  0  0  0
    9.8624   -3.3830    1.2030 H   0  0  0  0  0  0
    7.8210   -4.3586    0.2103 H   0  0  0  0  0  0
    5.8980   -2.9223   -0.3116 H   0  0  0  0  0  0
   -2.6030   -2.0877   -0.4122 H   0  0  0  0  0  0
   -0.1694   -2.0257   -0.4023 H   0  0  0  0  0  0
   -2.7015    2.1438    0.4256 H   0  0  0  0  0  0
   -0.2789    2.1957    0.4390 H   0  0  0  0  0  0
   -4.4781    1.8336   -0.8415 H   0  0  0  0  0  0
   -5.9579   -1.1099    0.4733 H   0  0  0  0  0  0
   -4.4095   -1.8505    0.8276 H   0  0  0  0  0  0
    1.7656   -0.8389    0.2803 H   0  0  0  0  0  0
   -5.9982    1.0325   -0.4981 H   0  0  0  0  0  0
  1  2  1  0  0  0
  1 23  1  0  0  0
  1 24  2  0  0  0
  2  6  1  0  0  0
  2  3  2  0  0  0
  3  7  1  0  0  0
  3  4  1  0  0  0
  4  8  1  0  0  0
  4  5  2  0  0  0
  5  6  1  0  0  0
  6 25  1  0  0  0
  8 13  1  0  0  0
  8  9  2  0  0  0
  9 10  1  0  0  0
  9 26  1  0  0  0
 10 11  2  0  0  0
 10 27  1  0  0  0
 11 12  1  0  0  0
 11 28  1  0  0  0
 12 13  2  0  0  0
 12 29  1  0  0  0
 13 30  1  0  0  0
 14 15  2  0  0  0
 14 17  1  0  0  0
 14 20  1  0  0  0
 15 16  1  0  0  0
 15 31  1  0  0  0
 16 19  2  0  0  0
 16 32  1  0  0  0
 17 18  2  0  0  0
 17 33  1  0  0  0
 18 19  1  0  0  0
 18 34  1  0  0  0
 19 23  1  0  0  0
 20 21  2  0  0  0
 20 22  1  0  0  0
 21 35  1  0  0  0
 21 39  1  0  0  0
 22 36  1  0  0  0
 22 37  1  0  0  0
 23 38  1  0  0  0
M  CHG  2   7  -1  21   1
M  END
> <chembl_id>
CHEMBL207219

> <chembl_pref_name>
None

> <s_m_source_file>
sdf/inactives_sanitized.sdf

> <i_m_source_file_index>
76

> <i_lp_mmshare_version>
49012

> <i_m_ct_stereo_status>
1

> <i_f3d_flags>
0

> <s_epik_input>
W0hdXE49QyhbTkgyXSlcYzFbY0hdW2NIXWMoW2NIXVtjSF0xKVtOSF1DKD1PKWMyYyhbT0hdKWMobltuSF0yKS1jM1tjSF1bY0hdW2NIXVtjSF1bY0hdMw==

> <s_epik_cmdline>
J2VwaWtfcHl0aG9uJywgJy1waHQnLCAnMC41JywgJy1waCcsICc3LjUnLCAnLW50JywgJy1tYScsICcyMDAnLCAnLWltYWUnLCAnPGluZmlsZS5tYWU+JywgJy1vbWFlJywgJzxvdXRmaWxlLm1hZT4n

> <r_lp_tautomer_probability>
1

> <r_epik_Ionization_Penalty>
  0.0018

> <r_epik_Ionization_Penalty_Charging>
  0.0018

> <r_epik_Ionization_Penalty_Neutral>
  0.0000

> <r_epik_State_Penalty>
 -0.0000

> <r_epik_Charging_Adjusted_Penalty>
0.00175230241126922

> <i_epik_Tot_Q>
0

> <i_epik_Tot_abs_Q>
2

> <s_epik_Chemistry_Notes>
This compound has an imine and may undergo hydrolysis.

> <s_lp_Force_Field>
OPLS3e

> <r_lp_Energy>
21.303037

> <b_lp_Chiralities_Consistent>
1

> <s_lp_Variant>
sdf/inactives_sanitized.sdf:76-1

$$$$
sdf/inactives_sanitized.sdf:77
                    3D
 Schrodinger Suite 2020-1.
 45 48  0  0  1  0            999 V2000
   -0.0604    0.1202   -0.0160 O   0  0  0  0  0  0
   -0.8308    1.3178   -0.0688 C   0  0  0  0  0  0
   -2.3110    0.9586   -0.0421 C   0  0  0  0  0  0
   -3.0887    1.1663   -1.1876 C   0  0  0  0  0  0
   -5.0377    0.3133   -0.0452 C   0  0  0  0  0  0
   -4.2720    0.1028    1.1007 C   0  0  0  0  0  0
   -4.4459    0.8454   -1.1893 C   0  0  0  0  0  0
   -2.9125    0.4230    1.1095 C   0  0  0  0  0  0
    4.2182    2.6800   -0.0547 C   0  0  0  0  0  0
    5.3603    2.7852   -0.8543 C   0  0  0  0  0  0
    6.1011    3.9605   -0.9322 C   0  0  0  0  0  0
    3.8011    3.7892    0.6937 C   0  0  0  0  0  0
    4.5197    4.9963    0.6446 C   0  0  0  0  0  0
    5.6759    5.0622   -0.1806 C   0  0  0  0  0  0
    6.4294    6.6456   -0.1072 S   0  0  0  0  0  0
    5.2100    7.2144    1.0273 C   0  0  0  0  0  0
    4.2765    6.2282    1.3138 C   0  0  0  0  0  0
    5.2355    8.5089    1.5121 C   0  0  0  0  0  0
    6.4047    9.0910    1.7474 N   0  0  0  0  0  0
    4.0831    9.1280    1.7344 N   0  3  0  0  0  0
    3.4528    1.4013    0.0001 C   0  0  0  0  0  0
    4.1175    0.1706    0.0831 C   0  0  0  0  0  0
    2.0125   -1.0066    0.0968 C   0  0  0  0  0  0
    1.3180    0.2006    0.0152 C   0  0  0  0  0  0
    3.4042   -1.0250    0.1311 C   0  0  0  0  0  0
    2.0503    1.3998   -0.0324 C   0  0  0  0  0  0
   -2.0054    0.1444    2.5571 Cl  0  0  0  0  0  0
   -0.6075    1.9666    0.7802 H   0  0  0  0  0  0
   -0.5931    1.8771   -0.9759 H   0  0  0  0  0  0
   -2.6438    1.5758   -2.0831 H   0  0  0  0  0  0
   -6.0886    0.0637   -0.0461 H   0  0  0  0  0  0
   -4.7367   -0.3106    1.9840 H   0  0  0  0  0  0
   -5.0377    1.0085   -2.0781 H   0  0  0  0  0  0
    5.6837    1.9365   -1.4400 H   0  0  0  0  0  0
    6.9793    4.0161   -1.5591 H   0  0  0  0  0  0
    2.9239    3.7144    1.3200 H   0  0  0  0  0  0
    3.4447    6.3762    1.9865 H   0  0  0  0  0  0
    6.4357   10.0362    2.1002 H   0  0  0  0  0  0
    7.2597    8.5838    1.5709 H   0  0  0  0  0  0
    4.0808   10.0733    2.0883 H   0  0  0  0  0  0
    5.1967    0.1337    0.1167 H   0  0  0  0  0  0
    1.4669   -1.9382    0.1343 H   0  0  0  0  0  0
    3.9304   -1.9660    0.1957 H   0  0  0  0  0  0
    1.5362    2.3461   -0.1046 H   0  0  0  0  0  0
    3.2135    8.6551    1.5361 H   0  0  0  0  0  0
  1  2  1  0  0  0
  1 24  1  0  0  0
  2  3  1  0  0  0
  2 28  1  0  0  0
  2 29  1  0  0  0
  3  8  2  0  0  0
  3  4  1  0  0  0
  4  7  2  0  0  0
  4 30  1  0  0  0
  5  7  1  0  0  0
  5  6  2  0  0  0
  5 31  1  0  0  0
  6  8  1  0  0  0
  6 32  1  0  0  0
  7 33  1  0  0  0
  8 27  1  0  0  0
  9 10  2  0  0  0
  9 21  1  0  0  0
  9 12  1  0  0  0
 10 11  1  0  0  0
 10 34  1  0  0  0
 11 14  2  0  0  0
 11 35  1  0  0  0
 12 13  2  0  0  0
 12 36  1  0  0  0
 13 17  1  0  0  0
 13 14  1  0  0  0
 14 15  1  0  0  0
 15 16  1  0  0  0
 16 17  2  0  0  0
 16 18  1  0  0  0
 17 37  1  0  0  0
 18 19  1  0  0  0
 18 20  2  0  0  0
 19 38  1  0  0  0
 19 39  1  0  0  0
 20 40  1  0  0  0
 20 45  1  0  0  0
 21 22  2  0  0  0
 21 26  1  0  0  0
 22 25  1  0  0  0
 22 41  1  0  0  0
 23 24  1  0  0  0
 23 25  2  0  0  0
 23 42  1  0  0  0
 24 26  2  0  0  0
 25 43  1  0  0  0
 26 44  1  0  0  0
M  CHG  1  20   1
M  END
> <chembl_id>
CHEMBL598179

> <chembl_pref_name>
None

> <s_m_source_file>
sdf/inactives_sanitized.sdf

> <i_m_source_file_index>
77

> <i_lp_mmshare_version>
49012

> <i_m_ct_stereo_status>
1

> <i_f3d_flags>
0

> <s_epik_input>
Q2xjMVtjSF1bY0hdW2NIXVtjSF1jMVtDSDJdT2MoW2NIXTIpW2NIXVtjSF1bY0hdYzItYyhbY0hdMylbY0hdW2NIXWMoYzM0KXNjKFtjSF00KS9DKFtOSDJdKT1OL1tIXQ==

> <s_epik_cmdline>
J2VwaWtfcHl0aG9uJywgJy1waHQnLCAnMC41JywgJy1waCcsICc3LjUnLCAnLW50JywgJy1tYScsICcyMDAnLCAnLWltYWUnLCAnPGluZmlsZS5tYWU+JywgJy1vbWFlJywgJzxvdXRmaWxlLm1hZT4n

> <r_lp_tautomer_probability>
1

> <r_epik_Ionization_Penalty>
  0.0095

> <r_epik_Ionization_Penalty_Charging>
  0.0095

> <r_epik_Ionization_Penalty_Neutral>
  0.0000

> <r_epik_State_Penalty>
 -0.0000

> <r_epik_Charging_Adjusted_Penalty>
0.00945881282357717

> <i_epik_Tot_Q>
1

> <i_epik_Tot_abs_Q>
1

> <s_epik_Chemistry_Notes>
This compound has an imine and may undergo hydrolysis.

> <s_lp_Force_Field>
OPLS3e

> <r_lp_Energy>
33.548406

> <b_lp_Chiralities_Consistent>
1

> <s_lp_Variant>
sdf/inactives_sanitized.sdf:77-1

$$$$
sdf/inactives_sanitized.sdf:78
                    3D
 Schrodinger Suite 2020-1.
 49 52  0  0  1  0            999 V2000
   -0.0371    0.1562    0.0174 O   0  0  0  0  0  0
   -0.7952    1.3563   -0.1014 C   0  0  0  0  0  0
   -2.2737    1.0104   -0.0688 C   0  0  0  0  0  0
   -2.9726    0.7945   -1.2591 C   0  0  0  0  0  0
   -4.9881    0.3608   -0.0024 C   0  0  0  0  0  0
   -4.3078    0.5690    1.2001 C   0  0  0  0  0  0
   -4.3276    0.4712   -1.2254 C   0  0  0  0  0  0
   -2.9406    0.8945    1.1552 C   0  0  0  0  0  0
    4.2549    2.6888   -0.0531 C   0  0  0  0  0  0
    5.4060    2.7755   -0.8419 C   0  0  0  0  0  0
    6.1527    3.9466   -0.9308 C   0  0  0  0  0  0
    3.8335    3.8123    0.6708 C   0  0  0  0  0  0
    4.5582    5.0148    0.6105 C   0  0  0  0  0  0
    5.7243    5.0623   -0.2016 C   0  0  0  0  0  0
    6.4840    6.6436   -0.1433 S   0  0  0  0  0  0
    5.2529    7.2354    0.9666 C   0  0  0  0  0  0
    4.3120    6.2577    1.2569 C   0  0  0  0  0  0
    5.2759    8.5373    1.4310 C   0  0  0  0  0  0
    6.4436    9.1208    1.6705 N   0  0  0  0  0  0
    4.1219    9.1612    1.6311 N   0  3  0  0  0  0
    3.4838    1.4149    0.0188 C   0  0  0  0  0  0
    4.1416    0.1831    0.1340 C   0  0  0  0  0  0
    2.0296   -0.9819    0.1637 C   0  0  0  0  0  0
    1.3422    0.2269    0.0493 C   0  0  0  0  0  0
    3.4214   -1.0073    0.2053 C   0  0  0  0  0  0
    2.0820    1.4200   -0.0242 C   0  0  0  0  0  0
   -5.0434    0.4360    2.3620 O   0  0  0  0  0  0
   -4.4016    0.6401    3.6160 C   0  0  0  0  0  0
   -0.5574    1.8718   -1.0342 H   0  0  0  0  0  0
   -0.5684    2.0440    0.7159 H   0  0  0  0  0  0
   -2.4679    0.8748   -2.2111 H   0  0  0  0  0  0
   -6.0385    0.1092    0.0123 H   0  0  0  0  0  0
   -4.8660    0.3045   -2.1468 H   0  0  0  0  0  0
   -2.3818    1.0586    2.0644 H   0  0  0  0  0  0
    5.7325    1.9154   -1.4088 H   0  0  0  0  0  0
    7.0380    3.9884   -1.5487 H   0  0  0  0  0  0
    2.9487    3.7523    1.2877 H   0  0  0  0  0  0
    3.4722    6.4199    1.9160 H   0  0  0  0  0  0
    6.4723   10.0711    2.0095 H   0  0  0  0  0  0
    7.2997    8.6094    1.5126 H   0  0  0  0  0  0
    4.1160   10.1123    1.9690 H   0  0  0  0  0  0
    5.2205    0.1423    0.1763 H   0  0  0  0  0  0
    1.4792   -1.9098    0.2210 H   0  0  0  0  0  0
    3.9416   -1.9496    0.2955 H   0  0  0  0  0  0
    1.5738    2.3673   -0.1213 H   0  0  0  0  0  0
   -5.1252    0.4969    4.4183 H   0  0  0  0  0  0
   -4.0088    1.6542    3.7042 H   0  0  0  0  0  0
   -3.5910   -0.0735    3.7719 H   0  0  0  0  0  0
    3.2542    8.6849    1.4330 H   0  0  0  0  0  0
  1 24  1  0  0  0
  1  2  1  0  0  0
  2  3  1  0  0  0
  2 29  1  0  0  0
  2 30  1  0  0  0
  3  8  2  0  0  0
  3  4  1  0  0  0
  4  7  2  0  0  0
  4 31  1  0  0  0
  5  7  1  0  0  0
  5  6  2  0  0  0
  5 32  1  0  0  0
  6  8  1  0  0  0
  6 27  1  0  0  0
  7 33  1  0  0  0
  8 34  1  0  0  0
  9 10  2  0  0  0
  9 21  1  0  0  0
  9 12  1  0  0  0
 10 11  1  0  0  0
 10 35  1  0  0  0
 11 14  2  0  0  0
 11 36  1  0  0  0
 12 13  2  0  0  0
 12 37  1  0  0  0
 13 17  1  0  0  0
 13 14  1  0  0  0
 14 15  1  0  0  0
 15 16  1  0  0  0
 16 17  2  0  0  0
 16 18  1  0  0  0
 17 38  1  0  0  0
 18 19  1  0  0  0
 18 20  2  0  0  0
 19 39  1  0  0  0
 19 40  1  0  0  0
 20 41  1  0  0  0
 20 49  1  0  0  0
 21 22  2  0  0  0
 21 26  1  0  0  0
 22 25  1  0  0  0
 22 42  1  0  0  0
 23 24  1  0  0  0
 23 25  2  0  0  0
 23 43  1  0  0  0
 24 26  2  0  0  0
 25 44  1  0  0  0
 26 45  1  0  0  0
 27 28  1  0  0  0
 28 46  1  0  0  0
 28 47  1  0  0  0
 28 48  1  0  0  0
M  CHG  1  20   1
M  END
> <chembl_id>
CHEMBL599627

> <chembl_pref_name>
None

> <s_m_source_file>
sdf/inactives_sanitized.sdf

> <i_m_source_file_index>
78

> <i_lp_mmshare_version>
49012

> <i_m_ct_stereo_status>
1

> <i_f3d_flags>
0

> <s_epik_input>
W0NIM11PYyhbY0hdMSlbY0hdW2NIXVtjSF1jMVtDSDJdT2MoW2NIXTIpW2NIXVtjSF1bY0hdYzItYyhbY0hdMylbY0hdW2NIXWMoYzM0KXNjKFtjSF00KS9DKFtOSDJdKT1OL1tIXQ==

> <s_epik_cmdline>
J2VwaWtfcHl0aG9uJywgJy1waHQnLCAnMC41JywgJy1waCcsICc3LjUnLCAnLW50JywgJy1tYScsICcyMDAnLCAnLWltYWUnLCAnPGluZmlsZS5tYWU+JywgJy1vbWFlJywgJzxvdXRmaWxlLm1hZT4n

> <r_lp_tautomer_probability>
1

> <r_epik_Ionization_Penalty>
  0.0095

> <r_epik_Ionization_Penalty_Charging>
  0.0095

> <r_epik_Ionization_Penalty_Neutral>
  0.0000

> <r_epik_State_Penalty>
 -0.0000

> <r_epik_Charging_Adjusted_Penalty>
0.00945881282357717

> <i_epik_Tot_Q>
1

> <i_epik_Tot_abs_Q>
1

> <s_epik_Chemistry_Notes>
This compound has an imine and may undergo hydrolysis.

> <s_lp_Force_Field>
OPLS3e

> <r_lp_Energy>
37.384962

> <b_lp_Chiralities_Consistent>
1

> <s_lp_Variant>
sdf/inactives_sanitized.sdf:78-1

$$$$
sdf/inactives_sanitized.sdf:79
                    3D
 Schrodinger Suite 2020-1.
 67 70  0  0  1  0            999 V2000
    1.8319   -1.1571   -0.4773 C   0  0  0  0  0  0
    2.5686   -1.0098   -1.7012 C   0  0  0  0  0  0
    0.0536    0.2224    0.6760 C   0  0  0  0  0  0
    1.5686   -0.0102    0.5022 C   0  0  1  0  0  0
    1.4345   -2.4727   -0.3057 C   0  0  0  0  0  0
   -2.2400    2.8896    0.0670 C   0  0  1  0  0  0
    1.8968   -3.5615   -1.5800 S   0  0  0  0  0  0
   -0.5340    1.0106   -0.2444 N   0  0  0  0  0  0
    3.1693    0.1336   -2.2656 C   0  0  0  0  0  0
   -1.6775    3.2604    1.4624 C   0  0  0  0  0  0
   -1.9533    1.3910   -0.2926 C   0  0  2  0  0  0
    4.4789    1.2606   -4.0568 C   0  0  0  0  0  0
    3.8561    0.0653   -3.4865 C   0  0  0  0  0  0
    2.6850   -2.2397   -2.4168 C   0  0  0  0  0  0
    4.4733    1.4272   -5.3746 N   0  3  0  0  0  0
    2.2978   -0.2390    1.8543 C   0  0  0  0  0  0
   -0.5606   -0.3132    1.6009 O   0  0  0  0  0  0
   -0.8899    4.2021    1.5661 O   0  0  0  0  0  0
    3.9386   -1.1624   -4.1500 C   0  0  0  0  0  0
    3.3644   -2.3200   -3.6374 C   0  0  0  0  0  0
   -2.0815    2.5256    2.5173 N   0  0  0  0  0  0
    5.0339    2.1503   -3.2416 N   0  0  0  0  0  0
    3.8156   -0.2853    1.7184 C   0  0  0  0  0  0
   -3.7680    3.1627    0.0667 C   0  0  0  0  0  0
   -2.5776    1.0535   -1.6691 C   0  0  0  0  0  0
   -1.6423    2.7185    3.8977 C   0  0  0  0  0  0
    4.4753   -1.5153    1.6426 C   0  0  0  0  0  0
    4.5438    0.9058    1.6539 C   0  0  0  0  0  0
   -4.3480    2.8759   -1.3308 C   0  0  0  0  0  0
   -0.2320    2.1720    4.1705 C   0  0  0  0  0  0
   -4.0711    1.4265   -1.7692 C   0  0  0  0  0  0
    5.9286    0.8668    1.5134 C   0  0  0  0  0  0
    5.8598   -1.5537    1.5009 C   0  0  0  0  0  0
    6.5800   -0.3626    1.4374 C   0  0  0  0  0  0
    1.9620    0.9259    0.1044 H   0  0  0  0  0  0
    0.8752   -2.8629    0.5323 H   0  0  0  0  0  0
   -1.7265    3.5450   -0.6400 H   0  0  0  0  0  0
    0.0483    1.4089   -0.9662 H   0  0  0  0  0  0
    3.1031    1.0839   -1.7595 H   0  0  0  0  0  0
   -2.4944    0.7718    0.4280 H   0  0  0  0  0  0
    4.0367    0.7341   -5.9650 H   0  0  0  0  0  0
    2.0493    0.5593    2.5568 H   0  0  0  0  0  0
    1.9472   -1.1529    2.3383 H   0  0  0  0  0  0
    4.4716   -1.2260   -5.0873 H   0  0  0  0  0  0
    3.4477   -3.2568   -4.1696 H   0  0  0  0  0  0
   -2.7290    1.7676    2.3576 H   0  0  0  0  0  0
    5.4673    2.9796   -3.6204 H   0  0  0  0  0  0
    5.0234    1.9902   -2.2446 H   0  0  0  0  0  0
   -4.3000    2.5072    0.7597 H   0  0  0  0  0  0
   -3.9832    4.2132    0.2724 H   0  0  0  0  0  0
   -2.0353    1.5884   -2.4509 H   0  0  0  0  0  0
   -2.4595   -0.0100   -1.8831 H   0  0  0  0  0  0
   -1.6971    3.7750    4.1680 H   0  0  0  0  0  0
   -2.3552    2.2068    4.5449 H   0  0  0  0  0  0
    3.9174   -2.4397    1.6869 H   0  0  0  0  0  0
    4.0383    1.8591    1.7099 H   0  0  0  0  0  0
   -5.4227    3.0627   -1.3334 H   0  0  0  0  0  0
   -3.9184    3.5673   -2.0577 H   0  0  0  0  0  0
    0.0513    2.3441    5.2089 H   0  0  0  0  0  0
    0.5168    2.6577    3.5440 H   0  0  0  0  0  0
   -0.1817    1.0971    3.9953 H   0  0  0  0  0  0
   -4.4244    1.2729   -2.7896 H   0  0  0  0  0  0
   -4.6514    0.7462   -1.1439 H   0  0  0  0  0  0
    6.4950    1.7852    1.4650 H   0  0  0  0  0  0
    6.3729   -2.5024    1.4410 H   0  0  0  0  0  0
    7.6543   -0.3931    1.3295 H   0  0  0  0  0  0
    4.9032    2.2451   -5.7813 H   0  0  0  0  0  0
  1  2  1  0  0  0
  1  4  1  0  0  0
  1  5  2  0  0  0
  2  9  2  0  0  0
  2 14  1  0  0  0
  3  4  1  0  0  0
  3  8  1  0  0  0
  3 17  2  0  0  0
  4 16  1  0  0  0
  4 35  1  0  0  0
  5  7  1  0  0  0
  5 36  1  0  0  0
  6 11  1  0  0  0
  6 10  1  0  0  0
  6 24  1  0  0  0
  6 37  1  0  0  0
  7 14  1  0  0  0
  8 11  1  0  0  0
  8 38  1  0  0  0
  9 13  1  0  0  0
  9 39  1  0  0  0
 10 18  2  0  0  0
 10 21  1  0  0  0
 11 25  1  0  0  0
 11 40  1  0  0  0
 12 13  1  0  0  0
 12 15  2  0  0  0
 12 22  1  0  0  0
 13 19  2  0  0  0
 14 20  2  0  0  0
 15 41  1  0  0  0
 15 67  1  0  0  0
 16 23  1  0  0  0
 16 42  1  0  0  0
 16 43  1  0  0  0
 19 20  1  0  0  0
 19 44  1  0  0  0
 20 45  1  0  0  0
 21 26  1  0  0  0
 21 46  1  0  0  0
 22 47  1  0  0  0
 22 48  1  0  0  0
 23 27  2  0  0  0
 23 28  1  0  0  0
 24 29  1  0  0  0
 24 49  1  0  0  0
 24 50  1  0  0  0
 25 31  1  0  0  0
 25 51  1  0  0  0
 25 52  1  0  0  0
 26 30  1  0  0  0
 26 53  1  0  0  0
 26 54  1  0  0  0
 27 33  1  0  0  0
 27 55  1  0  0  0
 28 32  2  0  0  0
 28 56  1  0  0  0
 29 31  1  0  0  0
 29 57  1  0  0  0
 29 58  1  0  0  0
 30 59  1  0  0  0
 30 60  1  0  0  0
 30 61  1  0  0  0
 31 62  1  0  0  0
 31 63  1  0  0  0
 32 34  1  0  0  0
 32 64  1  0  0  0
 33 34  2  0  0  0
 33 65  1  0  0  0
 34 66  1  0  0  0
M  CHG  1  15   1
M  END
> <chembl_id>
CHEMBL361374

> <chembl_pref_name>
None

> <i_m_ct_stereo_status>
1

> <s_m_source_file>
sdf/inactives_sanitized.sdf

> <i_m_source_file_index>
79

> <i_lp_mmshare_version>
49012

> <i_f3d_flags>
0

> <s_epik_input>
W0hdXE49QyhbTkgyXSlcYyhbY0hdMSlbY0hdW2NIXWMoYzEyKXNbY0hdYzJbQ0BIXShbQ0gyXWMzW2NIXVtjSF1bY0hdW2NIXVtjSF0zKUMoPU8pW05IXVtDQEhdKFtDSDJdW0NIMl1bQ0gyXVtDSDJdNClbQ0BASF00Qyg9TylbTkhdW0NIMl1bQ0gzXQ==

> <s_epik_cmdline>
J2VwaWtfcHl0aG9uJywgJy1waHQnLCAnMC41JywgJy1waCcsICc3LjUnLCAnLW50JywgJy1tYScsICcyMDAnLCAnLWltYWUnLCAnPGluZmlsZS5tYWU+JywgJy1vbWFlJywgJzxvdXRmaWxlLm1hZT4n

> <r_lp_tautomer_probability>
1

> <r_epik_Ionization_Penalty>
  0.0010

> <r_epik_Ionization_Penalty_Charging>
  0.0010

> <r_epik_Ionization_Penalty_Neutral>
  0.0000

> <r_epik_State_Penalty>
 -0.0000

> <r_epik_Charging_Adjusted_Penalty>
0.000984797499885888

> <i_epik_Tot_Q>
1

> <i_epik_Tot_abs_Q>
1

> <s_epik_Chemistry_Notes>
This compound has an imine and may undergo hydrolysis.

> <s_lp_Force_Field>
OPLS3e

> <r_lp_Energy>
36.029213

> <b_lp_Chiralities_Consistent>
1

> <s_lp_Variant>
sdf/inactives_sanitized.sdf:79-1

$$$$
sdf/inactives_sanitized.sdf:80
                    3D
 Schrodinger Suite 2020-1.
 56 60  0  0  1  0            999 V2000
    0.2255    0.0676    0.1675 C   0  0  0  0  0  0
   -0.5943    1.1553   -0.1268 N   0  0  0  0  0  0
    8.5862   -2.2582    0.8749 C   0  0  0  0  0  0
   -1.8946    0.8165    0.0032 N   0  0  0  0  0  0
   -1.9480   -0.4771    0.2255 C   0  0  0  0  0  0
   -0.6575   -0.9932    0.3367 C   0  0  0  0  0  0
    7.6309   -2.6612   -0.0081 N   0  0  0  0  0  0
    9.7781   -2.9272    0.6289 N   0  0  0  0  0  0
    1.6571    0.0647    0.3724 C   0  0  0  0  0  0
   -3.2746   -1.2072    0.3497 C   0  0  0  0  0  0
    9.5911   -3.6548   -0.3837 C   0  0  0  0  0  0
    8.2933   -3.3571   -1.0884 C   0  0  1  0  0  0
   -0.2656    2.5361   -0.2608 C   0  0  0  0  0  0
    2.4528    4.6611   -1.8421 C   0  0  0  0  0  0
    2.2504   -1.0849   -0.0190 N   0  0  0  0  0  0
    6.2900   -2.2326   -0.0078 C   0  0  0  0  0  0
    0.8779    2.9245   -0.9740 C   0  0  0  0  0  0
    1.2431    4.2751   -1.1101 C   0  0  0  0  0  0
    8.4196   -1.4588    1.7975 O   0  0  0  0  0  0
    3.1375    5.7254   -1.4406 N   0  3  0  0  0  0
   10.3851   -4.7436   -0.8911 C   0  0  0  0  0  0
    2.2342    1.0328    0.8694 O   0  0  0  0  0  0
    7.6654   -4.6069   -1.7339 C   0  0  0  0  0  0
    9.8504   -5.6820   -1.7062 C   0  0  0  0  0  0
    8.4309   -5.6747   -2.0503 C   0  0  0  0  0  0
   -3.4675   -2.0146   -0.6925 F   0  0  0  0  0  0
   -3.3014   -1.9574    1.4509 F   0  0  0  0  0  0
   -4.3138   -0.3717    0.4105 F   0  0  0  0  0  0
    5.2652   -3.1819    0.0060 C   0  0  0  0  0  0
    5.9781   -0.8683   -0.0329 C   0  0  0  0  0  0
    3.6191   -1.4101   -0.0050 C   0  0  0  0  0  0
    2.8346    3.9359   -2.8869 N   0  0  0  0  0  0
    3.9353   -2.7705    0.0005 C   0  0  0  0  0  0
    4.6487   -0.4569   -0.0339 C   0  0  0  0  0  0
   -1.0777    3.5308    0.3037 C   0  0  0  0  0  0
    0.4119    5.2420   -0.5207 C   0  0  0  0  0  0
   -0.7381    4.8745    0.1747 C   0  0  0  0  0  0
   -0.4027   -2.0178    0.5673 H   0  0  0  0  0  0
    8.4631   -2.6274   -1.8821 H   0  0  0  0  0  0
    1.6410   -1.8265   -0.3316 H   0  0  0  0  0  0
    1.4911    2.1607   -1.4309 H   0  0  0  0  0  0
    3.9725    6.0036   -1.9350 H   0  0  0  0  0  0
   11.4421   -4.7935   -0.6741 H   0  0  0  0  0  0
    6.6194   -4.6151   -2.0018 H   0  0  0  0  0  0
   10.4847   -6.4610   -2.1035 H   0  0  0  0  0  0
    7.9858   -6.5383   -2.5224 H   0  0  0  0  0  0
    5.4914   -4.2379    0.0325 H   0  0  0  0  0  0
    6.7620   -0.1249   -0.0578 H   0  0  0  0  0  0
    3.6662    4.1898   -3.3997 H   0  0  0  0  0  0
    2.2881    3.1346   -3.1670 H   0  0  0  0  0  0
    3.1537   -3.5170    0.0125 H   0  0  0  0  0  0
    4.4433    0.6015   -0.0732 H   0  0  0  0  0  0
   -1.9689    3.2727    0.8579 H   0  0  0  0  0  0
    0.6430    6.2950   -0.6020 H   0  0  0  0  0  0
   -1.3666    5.6330    0.6181 H   0  0  0  0  0  0
    2.8237    6.2481   -0.6358 H   0  0  0  0  0  0
  1  2  1  0  0  0
  1  6  2  0  0  0
  1  9  1  0  0  0
  2  4  1  0  0  0
  2 13  1  0  0  0
  3  7  1  0  0  0
  3  8  1  0  0  0
  3 19  2  0  0  0
  4  5  2  0  0  0
  5  6  1  0  0  0
  5 10  1  0  0  0
  6 38  1  0  0  0
  7 16  1  0  0  0
  7 12  1  0  0  0
  8 11  2  0  0  0
  9 15  1  0  0  0
  9 22  2  0  0  0
 10 26  1  0  0  0
 10 27  1  0  0  0
 10 28  1  0  0  0
 11 12  1  0  0  0
 11 21  1  0  0  0
 12 23  1  0  0  0
 12 39  1  0  0  0
 13 17  2  0  0  0
 13 35  1  0  0  0
 14 18  1  0  0  0
 14 20  2  0  0  0
 14 32  1  0  0  0
 15 31  1  0  0  0
 15 40  1  0  0  0
 16 30  2  0  0  0
 16 29  1  0  0  0
 17 18  1  0  0  0
 17 41  1  0  0  0
 18 36  2  0  0  0
 20 42  1  0  0  0
 20 56  1  0  0  0
 21 24  2  0  0  0
 21 43  1  0  0  0
 23 25  2  0  0  0
 23 44  1  0  0  0
 24 25  1  0  0  0
 24 45  1  0  0  0
 25 46  1  0  0  0
 29 33  2  0  0  0
 29 47  1  0  0  0
 30 34  1  0  0  0
 30 48  1  0  0  0
 31 33  1  0  0  0
 31 34  2  0  0  0
 32 49  1  0  0  0
 32 50  1  0  0  0
 33 51  1  0  0  0
 34 52  1  0  0  0
 35 37  2  0  0  0
 35 53  1  0  0  0
 36 37  1  0  0  0
 36 54  1  0  0  0
 37 55  1  0  0  0
M  CHG  1  20   1
M  END
> <chembl_id>
CHEMBL360197

> <chembl_pref_name>
None

> <s_m_source_file>
sdf/inactives_sanitized.sdf

> <i_m_source_file_index>
80

> <i_lp_mmshare_version>
49012

> <i_m_ct_stereo_status>
1

> <i_f3d_flags>
0

> <s_epik_input>
W2NIXTFbY0hdW2NIXWMoL0MoPU4vW0hdKVtOSDJdKVtjSF1jMS1uKG5jKFtjSF0yKUMoRikoRilGKWMyQyg9TylbTkhdYyhbY0hdW2NIXTMpW2NIXVtjSF1jM04oQyhOPTQpPU8pW0NAQEhdKEM0NSlbQ0hdPVtDSF1bQ0hdPVtDSF01

> <s_epik_cmdline>
J2VwaWtfcHl0aG9uJywgJy1waHQnLCAnMC41JywgJy1waCcsICc3LjUnLCAnLW50JywgJy1tYScsICcyMDAnLCAnLWltYWUnLCAnPGluZmlsZS5tYWU+JywgJy1vbWFlJywgJzxvdXRmaWxlLm1hZT4n

> <r_lp_tautomer_probability>
1

> <r_epik_Ionization_Penalty>
  0.0010

> <r_epik_Ionization_Penalty_Charging>
  0.0010

> <r_epik_Ionization_Penalty_Neutral>
  0.0000

> <r_epik_State_Penalty>
 -0.0000

> <r_epik_Charging_Adjusted_Penalty>
0.000984797499885888

> <i_epik_Tot_Q>
1

> <i_epik_Tot_abs_Q>
1

> <s_epik_Chemistry_Notes>
This compound has an imine and may undergo hydrolysis.

> <s_lp_Force_Field>
OPLS3e

> <r_lp_Energy>
61.415712

> <b_lp_Chiralities_Consistent>
1

> <s_lp_Variant>
sdf/inactives_sanitized.sdf:80-1

$$$$
sdf/inactives_sanitized.sdf:81
                    3D
 Schrodinger Suite 2020-1.
 72 77  0  0  1  0            999 V2000
    5.6211   -2.1529    3.8288 C   0  0  0  0  0  0
   -0.7750   -1.1509   -0.8123 C   0  0  0  0  0  0
    5.3923   -3.4478    3.3053 N   0  0  0  0  0  0
    5.1921   -1.0553    3.3309 N   0  0  0  0  0  0
   -1.3117   -0.5199   -1.9937 C   0  0  0  0  0  0
    6.4020   -2.4349    4.9836 N   0  0  0  0  0  0
   -0.9395   -2.5113   -1.0234 C   0  0  0  0  0  0
    5.4308    0.2027    3.8880 C   0  0  0  0  0  0
   -0.1677   -0.4365    0.3919 C   0  0  2  0  0  0
   -1.5280   -2.7421   -2.2388 N   0  0  0  0  0  0
   -1.4461    0.8168   -2.4026 C   0  0  0  0  0  0
    1.2623    0.0457    0.0722 C   0  0  0  0  0  0
   -2.1632    2.5232   -4.0707 C   0  0  0  0  0  0
    5.9839   -4.4378    4.0838 C   0  0  0  0  0  0
   -2.0223    1.1280   -3.6437 C   0  0  0  0  0  0
   -1.7742   -1.5443   -2.8698 C   0  0  0  0  0  0
    6.6207   -3.7995    5.1411 C   0  0  0  0  0  0
    4.7784    1.3586    3.1514 C   0  0  0  0  0  0
    1.4722    1.3746    0.1185 N   0  0  0  0  0  0
   -2.1378    2.8137   -5.3664 N   0  3  0  0  0  0
   -0.2149   -1.3008    1.6851 C   0  0  0  0  0  0
    6.0988    0.4078    4.9098 O   0  0  0  0  0  0
    2.1457   -0.7741   -0.1868 O   0  0  0  0  0  0
    4.1083    1.1824    1.9269 C   0  0  0  0  0  0
   -2.4600    0.0807   -4.4659 C   0  0  0  0  0  0
   -2.3509   -1.2625   -4.1095 C   0  0  0  0  0  0
   -2.3137    3.4717   -3.1535 N   0  0  0  0  0  0
    2.7667    2.0356   -0.0454 C   0  0  0  0  0  0
    3.4785    2.2528    1.2837 C   0  0  0  0  0  0
    0.2846   -0.5918    2.9430 C   0  0  0  0  0  0
    4.8242    2.6504    3.6991 C   0  0  0  0  0  0
    4.2144    3.7253    3.0535 C   0  0  0  0  0  0
    6.0249   -5.8277    3.9684 C   0  0  0  0  0  0
    7.3107   -4.5386    6.1024 C   0  0  0  0  0  0
    3.5446    3.5282    1.8485 C   0  0  0  0  0  0
    1.4724   -1.0028    3.5558 C   0  0  0  0  0  0
   -0.4461    0.4730    3.4780 C   0  0  0  0  0  0
    7.3545   -5.9309    5.9922 C   0  0  0  0  0  0
    6.7135   -6.5734    4.9286 C   0  0  0  0  0  0
    0.0133    1.1298    4.6165 C   0  0  0  0  0  0
    1.9254   -0.3516    4.6999 C   0  0  0  0  0  0
    1.1973    0.7144    5.2221 C   0  0  0  0  0  0
    6.7484   -1.7204    5.6077 H   0  0  0  0  0  0
   -0.6768   -3.3517   -0.3972 H   0  0  0  0  0  0
   -0.7903    0.4390    0.5876 H   0  0  0  0  0  0
   -1.7296   -3.6720   -2.5778 H   0  0  0  0  0  0
   -1.0926    1.6079   -1.7584 H   0  0  0  0  0  0
    0.7023    1.9710    0.3837 H   0  0  0  0  0  0
   -2.0161    2.0743   -6.0430 H   0  0  0  0  0  0
   -1.2418   -1.6168    1.8765 H   0  0  0  0  0  0
    0.3503   -2.2247    1.5460 H   0  0  0  0  0  0
    4.0548    0.2085    1.4622 H   0  0  0  0  0  0
   -2.9120    0.3114   -5.4193 H   0  0  0  0  0  0
   -2.7008   -2.0434   -4.7690 H   0  0  0  0  0  0
   -2.4111    4.4355   -3.4376 H   0  0  0  0  0  0
   -2.3366    3.2230   -2.1752 H   0  0  0  0  0  0
    3.4237    1.4530   -0.6953 H   0  0  0  0  0  0
    2.6119    2.9897   -0.5511 H   0  0  0  0  0  0
    5.3290    2.8358    4.6367 H   0  0  0  0  0  0
    4.2595    4.7120    3.4903 H   0  0  0  0  0  0
    5.5334   -6.3337    3.1506 H   0  0  0  0  0  0
    7.8095   -4.0518    6.9274 H   0  0  0  0  0  0
    3.0747    4.3688    1.3587 H   0  0  0  0  0  0
    2.0479   -1.8211    3.1476 H   0  0  0  0  0  0
   -1.3650    0.7947    3.0099 H   0  0  0  0  0  0
    7.8856   -6.5126    6.7312 H   0  0  0  0  0  0
    6.7509   -7.6499    4.8486 H   0  0  0  0  0  0
   -0.5457    1.9567    5.0287 H   0  0  0  0  0  0
    2.8408   -0.6680    5.1778 H   0  0  0  0  0  0
    1.5540    1.2226    6.1058 H   0  0  0  0  0  0
   -2.2348    3.7716   -5.6700 H   0  0  0  0  0  0
    4.8576   -3.6217    2.4669 H   0  0  0  0  0  0
  1  3  1  0  0  0
  1  4  2  0  0  0
  1  6  1  0  0  0
  2  9  1  0  0  0
  2  5  1  0  0  0
  2  7  2  0  0  0
  3 14  1  0  0  0
  3 72  1  0  0  0
  4  8  1  0  0  0
  5 11  2  0  0  0
  5 16  1  0  0  0
  6 17  1  0  0  0
  6 43  1  0  0  0
  7 10  1  0  0  0
  7 44  1  0  0  0
  8 18  1  0  0  0
  8 22  2  0  0  0
  9 12  1  0  0  0
  9 21  1  0  0  0
  9 45  1  0  0  0
 10 16  1  0  0  0
 10 46  1  0  0  0
 11 15  1  0  0  0
 11 47  1  0  0  0
 12 19  1  0  0  0
 12 23  2  0  0  0
 13 15  1  0  0  0
 13 20  2  0  0  0
 13 27  1  0  0  0
 14 33  2  0  0  0
 14 17  1  0  0  0
 15 25  2  0  0  0
 16 26  2  0  0  0
 17 34  2  0  0  0
 18 24  2  0  0  0
 18 31  1  0  0  0
 19 28  1  0  0  0
 19 48  1  0  0  0
 20 49  1  0  0  0
 20 71  1  0  0  0
 21 30  1  0  0  0
 21 50  1  0  0  0
 21 51  1  0  0  0
 24 29  1  0  0  0
 24 52  1  0  0  0
 25 26  1  0  0  0
 25 53  1  0  0  0
 26 54  1  0  0  0
 27 55  1  0  0  0
 27 56  1  0  0  0
 28 29  1  0  0  0
 28 57  1  0  0  0
 28 58  1  0  0  0
 29 35  2  0  0  0
 30 36  2  0  0  0
 30 37  1  0  0  0
 31 32  2  0  0  0
 31 59  1  0  0  0
 32 35  1  0  0  0
 32 60  1  0  0  0
 33 39  1  0  0  0
 33 61  1  0  0  0
 34 38  1  0  0  0
 34 62  1  0  0  0
 35 63  1  0  0  0
 36 41  1  0  0  0
 36 64  1  0  0  0
 37 40  2  0  0  0
 37 65  1  0  0  0
 38 39  2  0  0  0
 38 66  1  0  0  0
 39 67  1  0  0  0
 40 42  1  0  0  0
 40 68  1  0  0  0
 41 42  2  0  0  0
 41 69  1  0  0  0
 42 70  1  0  0  0
M  CHG  1  20   1
M  END
> <chembl_id>
CHEMBL366053

> <chembl_pref_name>
None

> <s_m_source_file>
sdf/inactives_sanitized.sdf

> <i_m_source_file_index>
81

> <i_lp_mmshare_version>
49012

> <i_m_ct_stereo_status>
1

> <i_f3d_flags>
0

> <s_epik_input>
W2NIXTFbY0hdW2NIXVtjSF1jKGMxMilbbkhdYyhuMilbTkhdQyg9TyljM1tjSF1jKFtjSF1bY0hdW2NIXTMpW0NIMl1bTkhdQyg9TylbQ0BIXShbQ0gyXWM0W2NIXVtjSF1bY0hdW2NIXVtjSF00KWM1W2NIXVtuSF1jKGM1NilbY0hdW2NIXWMoW2NIXTYpL0MoPU4vW0hdKVtOSDJd

> <s_epik_cmdline>
J2VwaWtfcHl0aG9uJywgJy1waHQnLCAnMC41JywgJy1waCcsICc3LjUnLCAnLW50JywgJy1tYScsICcyMDAnLCAnLWltYWUnLCAnPGluZmlsZS5tYWU+JywgJy1vbWFlJywgJzxvdXRmaWxlLm1hZT4n

> <r_lp_tautomer_probability>
1

> <r_epik_Ionization_Penalty>
  0.0023

> <r_epik_Ionization_Penalty_Charging>
  0.0023

> <r_epik_Ionization_Penalty_Neutral>
  0.0000

> <r_epik_State_Penalty>
 -0.0000

> <r_epik_Charging_Adjusted_Penalty>
0.00234382463445166

> <i_epik_Tot_Q>
1

> <i_epik_Tot_abs_Q>
1

> <s_epik_Chemistry_Notes>
This compound has an imine and may undergo hydrolysis.

> <s_lp_Force_Field>
OPLS3e

> <r_lp_Energy>
41.660116

> <b_lp_Chiralities_Consistent>
1

> <s_lp_Variant>
sdf/inactives_sanitized.sdf:81-1

$$$$
sdf/inactives_sanitized.sdf:82
                    3D
 Schrodinger Suite 2020-1.
 56 60  0  0  1  0            999 V2000
    0.2688    0.2689    0.3744 C   0  0  0  0  0  0
   -0.5999    1.3287    0.1556 N   0  0  0  0  0  0
   -1.8888    0.9542    0.2543 N   0  0  0  0  0  0
   -1.8899   -0.3271    0.5464 C   0  0  0  0  0  0
   -0.5784   -0.8030    0.6401 C   0  0  0  0  0  0
    1.7144    0.3217    0.4177 C   0  0  0  0  0  0
    8.3556   -1.1112    2.3455 S   0  0  0  0  0  0
    0.7578    4.2848   -1.6236 C   0  0  0  0  0  0
   -3.1987   -1.0727    0.7299 C   0  0  0  0  0  0
    1.3922    6.3111   -2.4375 N   0  0  0  0  0  0
    1.4943    5.0114   -2.6058 C   0  0  0  0  0  0
   -0.3222    2.6715   -0.1892 C   0  0  0  0  0  0
    8.7551   -2.1029    0.8881 C   0  0  0  0  0  0
    0.4954    2.9443   -1.2971 C   0  0  0  0  0  0
    2.2981   -0.8720    0.1695 N   0  0  0  0  0  0
    0.5701    6.5209   -1.3209 O   0  0  0  0  0  0
    7.7789   -2.4867   -0.0603 C   0  0  0  0  0  0
    6.3605   -2.0421    0.0010 C   0  0  0  0  0  0
    0.1931    5.3019   -0.8387 C   0  0  0  0  0  0
    3.6666   -1.2043    0.1054 C   0  0  0  0  0  0
    3.9907   -2.5674    0.1351 C   0  0  0  0  0  0
    5.3233   -2.9772    0.0819 C   0  0  0  0  0  0
    8.6458    0.2824    1.9920 O   0  0  0  0  0  0
    7.0157   -1.4978    2.8016 O   0  0  0  0  0  0
    2.3065    1.3721    0.6670 O   0  0  0  0  0  0
   -0.8769    3.7123    0.5717 C   0  0  0  0  0  0
    6.0335   -0.6827   -0.0457 C   0  0  0  0  0  0
    4.7052   -0.2632    0.0089 C   0  0  0  0  0  0
   -0.6289    5.0509    0.2643 C   0  0  0  0  0  0
   -2.9931   -2.3252    1.1386 F   0  0  0  0  0  0
   -3.9723   -0.4775    1.6383 F   0  0  0  0  0  0
   -3.8821   -1.1300   -0.4132 F   0  0  0  0  0  0
    2.2248    4.4451   -3.6094 N   0  0  0  0  0  0
    3.0188   -3.5078    0.2193 F   0  0  0  0  0  0
    9.5724   -1.6492    3.6893 C   0  0  0  0  0  0
   10.0876   -2.4940    0.7038 C   0  0  0  0  0  0
    8.1666   -3.3038   -1.1314 C   0  0  0  0  0  0
   10.4532   -3.2937   -0.3758 C   0  0  0  0  0  0
    9.4900   -3.7072   -1.2896 C   0  0  0  0  0  0
   -0.2853   -1.8142    0.8838 H   0  0  0  0  0  0
    0.9165    2.1427   -1.8871 H   0  0  0  0  0  0
    1.6748   -1.6551    0.0370 H   0  0  0  0  0  0
    5.5516   -4.0329    0.1123 H   0  0  0  0  0  0
   -1.5064    3.4836    1.4200 H   0  0  0  0  0  0
    6.8152    0.0590   -0.1241 H   0  0  0  0  0  0
    4.5158    0.7969   -0.0415 H   0  0  0  0  0  0
   -1.0515    5.8526    0.8515 H   0  0  0  0  0  0
    2.2890    3.4435   -3.7180 H   0  0  0  0  0  0
    2.7269    5.0103   -4.2789 H   0  0  0  0  0  0
    9.2841   -1.1744    4.6266 H   0  0  0  0  0  0
   10.5791   -1.3320    3.4211 H   0  0  0  0  0  0
    9.5290   -2.7327    3.7969 H   0  0  0  0  0  0
   10.8562   -2.1888    1.3960 H   0  0  0  0  0  0
    7.4369   -3.6158   -1.8649 H   0  0  0  0  0  0
   11.4829   -3.5944   -0.5018 H   0  0  0  0  0  0
    9.7701   -4.3288   -2.1274 H   0  0  0  0  0  0
  1  2  1  0  0  0
  1  5  2  0  0  0
  1  6  1  0  0  0
  2  3  1  0  0  0
  2 12  1  0  0  0
  3  4  2  0  0  0
  4  5  1  0  0  0
  4  9  1  0  0  0
  5 40  1  0  0  0
  6 15  1  0  0  0
  6 25  2  0  0  0
  7 13  1  0  0  0
  7 23  2  0  0  0
  7 24  2  0  0  0
  7 35  1  0  0  0
  8 14  2  0  0  0
  8 11  1  0  0  0
  8 19  1  0  0  0
  9 30  1  0  0  0
  9 31  1  0  0  0
  9 32  1  0  0  0
 10 11  2  0  0  0
 10 16  1  0  0  0
 11 33  1  0  0  0
 12 14  1  0  0  0
 12 26  2  0  0  0
 13 17  2  0  0  0
 13 36  1  0  0  0
 14 41  1  0  0  0
 15 20  1  0  0  0
 15 42  1  0  0  0
 16 19  1  0  0  0
 17 18  1  0  0  0
 17 37  1  0  0  0
 18 27  1  0  0  0
 18 22  2  0  0  0
 19 29  2  0  0  0
 20 21  2  0  0  0
 20 28  1  0  0  0
 21 22  1  0  0  0
 21 34  1  0  0  0
 22 43  1  0  0  0
 26 29  1  0  0  0
 26 44  1  0  0  0
 27 28  2  0  0  0
 27 45  1  0  0  0
 28 46  1  0  0  0
 29 47  1  0  0  0
 33 48  1  0  0  0
 33 49  1  0  0  0
 35 50  1  0  0  0
 35 51  1  0  0  0
 35 52  1  0  0  0
 36 38  2  0  0  0
 36 53  1  0  0  0
 37 39  2  0  0  0
 37 54  1  0  0  0
 38 39  1  0  0  0
 38 55  1  0  0  0
 39 56  1  0  0  0
M  END
> <chembl_id>
CHEMBL554926

> <chembl_pref_name>
None

> <s_m_source_file>
sdf/inactives_sanitized.sdf

> <i_m_source_file_index>
82

> <i_lp_mmshare_version>
49012

> <i_m_ct_stereo_status>
1

> <i_f3d_flags>
0

> <s_epik_input>
W05IMl1jMW5vYyhjMTIpW2NIXVtjSF1jKFtjSF0yKS1uKG5jKFtjSF0zKUMoRikoRilGKWMzQyg9TylbTkhdYyhbY0hdW2NIXTQpYyhGKVtjSF1jNC1jKGM1Uyg9TykoPU8pW0NIM10pW2NIXVtjSF1bY0hdW2NIXTU=

> <s_epik_cmdline>
J2VwaWtfcHl0aG9uJywgJy1waHQnLCAnMC41JywgJy1waCcsICc3LjUnLCAnLW50JywgJy1tYScsICcyMDAnLCAnLWltYWUnLCAnPGluZmlsZS5tYWU+JywgJy1vbWFlJywgJzxvdXRmaWxlLm1hZT4n

> <r_lp_tautomer_probability>
1

> <r_epik_Ionization_Penalty>
  0.0000

> <r_epik_Ionization_Penalty_Charging>
  0.0000

> <r_epik_Ionization_Penalty_Neutral>
  0.0000

> <r_epik_State_Penalty>
 -0.0000

> <r_epik_Charging_Adjusted_Penalty>
0

> <i_epik_Tot_Q>
0

> <i_epik_Tot_abs_Q>
0

> <s_lp_Force_Field>
OPLS3e

> <r_lp_Energy>
46.69448

> <b_lp_Chiralities_Consistent>
1

> <s_lp_Variant>
sdf/inactives_sanitized.sdf:82-1

$$$$
sdf/inactives_sanitized.sdf:83
                    3D
 Schrodinger Suite 2020-1.
 75 79  0  0  1  0            999 V2000
   -4.6453   -6.8736    1.1801 C   0  0  0  0  0  0
   -4.5720   -5.7392    0.3282 O   0  0  0  0  0  0
   -5.6974   -5.1378   -0.1351 C   0  0  0  0  0  0
   -6.8380   -5.5261    0.1347 O   0  0  0  0  0  0
   -5.4164   -3.9610   -1.0236 C   0  0  0  0  0  0
   -6.4830   -3.2834   -1.6282 C   0  0  0  0  0  0
   -6.2537   -2.1861   -2.4542 C   0  0  0  0  0  0
   -4.9533   -1.7347   -2.6866 C   0  0  0  0  0  0
   -4.8088   -0.6392   -3.5524 N   0  0  0  0  0  0
   -4.4697    0.6315   -3.2363 C   0  0  0  0  0  0
   -4.4557    1.4863   -4.1213 O   0  0  0  0  0  0
   -4.0946    1.0550   -1.7911 C   0  0  2  0  0  0
   -5.1692    1.9855   -1.1926 C   0  0  0  0  0  0
   -2.6794    1.7042   -1.7553 C   0  0  0  0  0  0
   -2.0179    1.7609   -0.3529 C   0  0  0  0  0  0
   -0.4756    1.5783   -0.3533 C   0  0  0  0  0  0
    0.0384    0.1030   -0.3064 C   0  0  2  0  0  0
    1.5098   -0.0183   -0.1555 N   0  0  0  0  0  0
    2.4094    0.9572   -0.8433 C   0  0  0  0  0  0
    3.8272    0.3892   -1.1267 C   0  0  0  0  0  0
    4.3269   -0.3190    0.1181 C   0  0  0  0  0  0
    3.4362   -0.9961    0.8671 C   0  0  0  0  0  0
    2.0120   -1.0373    0.6178 C   0  0  0  0  0  0
    1.3316   -1.9523    1.0851 O   0  0  0  0  0  0
    5.7828   -0.4799    0.3457 C   0  0  0  0  0  0
    6.4716    0.6390    0.8447 C   0  0  0  0  0  0
    5.8123    1.8054    1.0552 F   0  0  0  0  0  0
    7.8333    0.5673    1.1420 C   0  0  0  0  0  0
    8.6737    1.9478    1.7537 Cl  0  0  0  0  0  0
    8.5217   -0.6262    0.9569 C   0  0  0  0  0  0
    7.8559   -1.7446    0.4659 C   0  0  0  0  0  0
    6.4946   -1.6886    0.1308 C   0  0  0  0  0  0
    5.8684   -2.9595   -0.3623 C   0  0  0  0  0  0
    6.1893   -4.0777    0.0407 O   0  0  0  0  0  0
    4.9882   -2.8713   -1.6084 C   0  0  0  0  0  0
   -0.5384   -0.7516   -1.4399 C   0  0  0  0  0  0
    0.0991   -0.8866   -2.6796 C   0  0  0  0  0  0
   -0.5365   -1.5589   -3.7240 C   0  0  0  0  0  0
   -1.8200   -2.0763   -3.5445 C   0  0  0  0  0  0
   -2.4565   -1.9699   -2.3038 C   0  0  0  0  0  0
   -1.7769   -1.3663   -1.2445 C   0  0  0  0  0  0
   -3.8593   -2.4102   -2.1052 C   0  0  0  0  0  0
   -4.1108   -3.5068   -1.2722 C   0  0  0  0  0  0
   -3.6401   -7.2238    1.4145 H   0  0  0  0  0  0
   -5.1861   -7.6912    0.7010 H   0  0  0  0  0  0
   -5.1464   -6.6268    2.1172 H   0  0  0  0  0  0
   -7.5041   -3.5992   -1.4668 H   0  0  0  0  0  0
   -7.0965   -1.6844   -2.9085 H   0  0  0  0  0  0
   -5.1013   -0.8036   -4.5046 H   0  0  0  0  0  0
   -4.0730    0.1686   -1.1611 H   0  0  0  0  0  0
   -6.1506    1.5088   -1.1883 H   0  0  0  0  0  0
   -5.2593    2.9159   -1.7555 H   0  0  0  0  0  0
   -4.9337    2.2464   -0.1604 H   0  0  0  0  0  0
   -2.0220    1.1661   -2.4377 H   0  0  0  0  0  0
   -2.7187    2.7113   -2.1745 H   0  0  0  0  0  0
   -2.2611    2.7261    0.0935 H   0  0  0  0  0  0
   -2.4614    1.0252    0.3187 H   0  0  0  0  0  0
   -0.0569    2.1136   -1.2057 H   0  0  0  0  0  0
   -0.0860    2.0880    0.5294 H   0  0  0  0  0  0
   -0.3981   -0.2935    0.6128 H   0  0  0  0  0  0
    1.9407    1.4166   -1.7130 H   0  0  0  0  0  0
    2.5442    1.7731   -0.1314 H   0  0  0  0  0  0
    3.7445   -0.3248   -1.9462 H   0  0  0  0  0  0
    4.5079    1.1790   -1.4461 H   0  0  0  0  0  0
    3.7973   -1.5822    1.7008 H   0  0  0  0  0  0
    9.5732   -0.6897    1.1961 H   0  0  0  0  0  0
    8.4213   -2.6576    0.3375 H   0  0  0  0  0  0
    5.3256   -2.0633   -2.2570 H   0  0  0  0  0  0
    3.9462   -2.7023   -1.3391 H   0  0  0  0  0  0
    5.0534   -3.7939   -2.1858 H   0  0  0  0  0  0
    1.0664   -0.4408   -2.8549 H   0  0  0  0  0  0
   -0.0511   -1.6435   -4.6850 H   0  0  0  0  0  0
   -2.3263   -2.5462   -4.3753 H   0  0  0  0  0  0
   -2.2710   -1.2724   -0.2879 H   0  0  0  0  0  0
   -3.2637   -4.0043   -0.8202 H   0  0  0  0  0  0
  1  2  1  0  0  0
  1 44  1  0  0  0
  1 45  1  0  0  0
  1 46  1  0  0  0
  2  3  1  0  0  0
  3  4  2  0  0  0
  3  5  1  0  0  0
  5  6  2  0  0  0
  5 43  1  0  0  0
  6  7  1  0  0  0
  6 47  1  0  0  0
  7  8  2  0  0  0
  7 48  1  0  0  0
  8  9  1  0  0  0
  8 42  1  0  0  0
  9 10  1  0  0  0
  9 49  1  0  0  0
 10 11  2  0  0  0
 10 12  1  0  0  0
 12 13  1  0  0  0
 12 14  1  0  0  0
 12 50  1  0  0  0
 13 51  1  0  0  0
 13 52  1  0  0  0
 13 53  1  0  0  0
 14 15  1  0  0  0
 14 54  1  0  0  0
 14 55  1  0  0  0
 15 16  1  0  0  0
 15 56  1  0  0  0
 15 57  1  0  0  0
 16 17  1  0  0  0
 16 58  1  0  0  0
 16 59  1  0  0  0
 17 18  1  0  0  0
 17 36  1  0  0  0
 17 60  1  0  0  0
 18 19  1  0  0  0
 18 23  1  0  0  0
 19 20  1  0  0  0
 19 61  1  0  0  0
 19 62  1  0  0  0
 20 21  1  0  0  0
 20 63  1  0  0  0
 20 64  1  0  0  0
 21 22  2  0  0  0
 21 25  1  0  0  0
 22 23  1  0  0  0
 22 65  1  0  0  0
 23 24  2  0  0  0
 25 26  2  0  0  0
 25 32  1  0  0  0
 26 27  1  0  0  0
 26 28  1  0  0  0
 28 29  1  0  0  0
 28 30  2  0  0  0
 30 31  1  0  0  0
 30 66  1  0  0  0
 31 32  2  0  0  0
 31 67  1  0  0  0
 32 33  1  0  0  0
 33 34  2  0  0  0
 33 35  1  0  0  0
 35 68  1  0  0  0
 35 69  1  0  0  0
 35 70  1  0  0  0
 36 37  1  0  0  0
 36 41  2  0  0  0
 37 38  2  0  0  0
 37 71  1  0  0  0
 38 39  1  0  0  0
 38 72  1  0  0  0
 39 40  2  0  0  0
 39 73  1  0  0  0
 40 41  1  0  0  0
 40 42  1  0  0  0
 41 74  1  0  0  0
 42 43  2  0  0  0
 43 75  1  0  0  0
M  END
> <chembl_id>
CHEMBL4113770

> <chembl_pref_name>
None

> <i_m_ct_stereo_status>
1

> <s_m_source_file>
sdf/inactives_sanitized.sdf

> <i_m_source_file_index>
83

> <i_lp_mmshare_version>
49012

> <i_f3d_flags>
0

> <s_epik_input>
W0NIM11PQyg9TyljKFtjSF1bY0hdMSlbY0hdYyhjMTIpYzNbY0hdW2NIXVtjSF1jKFtjSF0zKVtDQEhdKFtDSDJdW0NIMl1bQ0gyXVtDQEBIXShbQ0gzXSlDKD1PKVtOSF0yKU40W0NIMl1bQ0gyXUMoPVtDSF1DND1PKWM1YyhGKWMoQ2wpW2NIXVtjSF1jNUMoPU8pW0NIM10=

> <s_epik_cmdline>
J2VwaWtfcHl0aG9uJywgJy1waHQnLCAnMC41JywgJy1waCcsICc3LjUnLCAnLW50JywgJy1tYScsICcyMDAnLCAnLWltYWUnLCAnPGluZmlsZS5tYWU+JywgJy1vbWFlJywgJzxvdXRmaWxlLm1hZT4n

> <r_lp_tautomer_probability>
1

> <r_epik_Ionization_Penalty>
  0.0000

> <r_epik_Ionization_Penalty_Charging>
  0.0000

> <r_epik_Ionization_Penalty_Neutral>
  0.0000

> <r_epik_State_Penalty>
 -0.0000

> <r_epik_Charging_Adjusted_Penalty>
0

> <i_epik_Tot_Q>
0

> <i_epik_Tot_abs_Q>
0

> <s_epik_Chemistry_Notes>
This compound has an ester and may undergo hydrolysis at high or low pH.

> <s_lp_Force_Field>
OPLS3e

> <r_lp_Energy>
93.105657

> <b_lp_Chiralities_Consistent>
1

> <s_lp_Variant>
sdf/inactives_sanitized.sdf:83-1

$$$$
sdf/inactives_sanitized.sdf:84
                    3D
 Schrodinger Suite 2020-1.
 70 74  0  0  1  0            999 V2000
   -2.0507   -1.0634   -0.2004 C   0  0  0  0  0  0
   -0.6319   -0.9923   -0.1663 O   0  0  0  0  0  0
    0.0058    0.2052   -0.1102 C   0  0  0  0  0  0
   -0.5837    1.2897   -0.0885 O   0  0  0  0  0  0
    1.5014    0.0797   -0.0784 C   0  0  0  0  0  0
    2.1472   -1.1658   -0.0924 C   0  0  0  0  0  0
    3.5372   -1.2463   -0.0665 C   0  0  0  0  0  0
    4.3133   -0.0864   -0.0336 C   0  0  0  0  0  0
    5.7062   -0.2570    0.0082 N   0  0  0  0  0  0
    6.6027   -0.0114   -0.9748 C   0  0  0  0  0  0
    7.7892   -0.2767   -0.7846 O   0  0  0  0  0  0
    6.1880    0.5951   -2.3422 C   0  0  2  0  0  0
    6.3432   -0.4411   -3.4740 C   0  0  0  0  0  0
    6.9865    1.8999   -2.6353 C   0  0  0  0  0  0
    6.3603    2.8242   -3.7137 C   0  0  0  0  0  0
    6.5645    4.3436   -3.4652 C   0  0  0  0  0  0
    5.5047    5.0405   -2.5507 C   0  0  2  0  0  0
    5.6743    6.5117   -2.4472 N   0  0  0  0  0  0
    7.0477    7.0993   -2.4134 C   0  0  0  0  0  0
    7.1065    8.4735   -1.6932 C   0  0  0  0  0  0
    5.9598    9.3381   -2.1854 C   0  0  0  0  0  0
    4.7830    8.7303   -2.4359 C   0  0  0  0  0  0
    4.5537    7.3029   -2.3679 C   0  0  0  0  0  0
    3.4077    6.8673   -2.2426 O   0  0  0  0  0  0
    6.0343   10.8182   -2.1093 C   0  0  0  0  0  0
    6.5090   11.4630   -0.9540 C   0  0  0  0  0  0
    6.8893   10.7519    0.1333 F   0  0  0  0  0  0
    6.5817   12.8547   -0.8974 C   0  0  0  0  0  0
    6.1843   13.6231   -1.9881 C   0  0  0  0  0  0
    5.7132   13.0012   -3.1424 C   0  0  0  0  0  0
    5.2284   13.9675   -4.4905 Cl  0  0  0  0  0  0
    5.6387   11.6062   -3.2050 C   0  0  0  0  0  0
    5.1938   11.0186   -4.3427 F   0  0  0  0  0  0
    5.3535    4.3411   -1.1955 C   0  0  0  0  0  0
    6.1048    4.7098   -0.0723 C   0  0  0  0  0  0
    6.0347    3.9515    1.0966 C   0  0  0  0  0  0
    5.2351    2.8090    1.1419 C   0  0  0  0  0  0
    4.4605    2.4450    0.0358 C   0  0  0  0  0  0
    4.4777    3.2577   -1.0990 C   0  0  0  0  0  0
    3.6882    1.1780    0.0068 C   0  0  0  0  0  0
    2.2900    1.2385   -0.0301 C   0  0  0  0  0  0
   -2.3679   -2.1057   -0.2344 H   0  0  0  0  0  0
   -2.4477   -0.5586   -1.0824 H   0  0  0  0  0  0
   -2.4878   -0.6047    0.6879 H   0  0  0  0  0  0
    1.5863   -2.0887   -0.1247 H   0  0  0  0  0  0
    4.0082   -2.2191   -0.0792 H   0  0  0  0  0  0
    6.0581   -0.7160    0.8356 H   0  0  0  0  0  0
    5.1314    0.8503   -2.3051 H   0  0  0  0  0  0
    5.7570   -1.3397   -3.2747 H   0  0  0  0  0  0
    7.3820   -0.7494   -3.6021 H   0  0  0  0  0  0
    5.9988   -0.0376   -4.4267 H   0  0  0  0  0  0
    7.1043    2.4627   -1.7097 H   0  0  0  0  0  0
    8.0115    1.6559   -2.9208 H   0  0  0  0  0  0
    6.7986    2.5603   -4.6772 H   0  0  0  0  0  0
    5.2947    2.6241   -3.8307 H   0  0  0  0  0  0
    7.5750    4.5039   -3.0894 H   0  0  0  0  0  0
    6.5346    4.8411   -4.4359 H   0  0  0  0  0  0
    4.5598    4.8762   -3.0736 H   0  0  0  0  0  0
    7.7959    6.3907   -2.0596 H   0  0  0  0  0  0
    7.3065    7.2863   -3.4567 H   0  0  0  0  0  0
    6.9914    8.2935   -0.6235 H   0  0  0  0  0  0
    8.0727    8.9545   -1.8496 H   0  0  0  0  0  0
    3.9236    9.3394   -2.6796 H   0  0  0  0  0  0
    6.9438   13.3403   -0.0031 H   0  0  0  0  0  0
    6.2429   14.7005   -1.9359 H   0  0  0  0  0  0
    6.7743    5.5556   -0.1089 H   0  0  0  0  0  0
    6.6316    4.2263    1.9536 H   0  0  0  0  0  0
    5.2310    2.1966    2.0320 H   0  0  0  0  0  0
    3.8894    2.9718   -1.9595 H   0  0  0  0  0  0
    1.8191    2.2124   -0.0173 H   0  0  0  0  0  0
  1  2  1  0  0  0
  1 42  1  0  0  0
  1 43  1  0  0  0
  1 44  1  0  0  0
  2  3  1  0  0  0
  3  4  2  0  0  0
  3  5  1  0  0  0
  5  6  2  0  0  0
  5 41  1  0  0  0
  6  7  1  0  0  0
  6 45  1  0  0  0
  7  8  2  0  0  0
  7 46  1  0  0  0
  8  9  1  0  0  0
  8 40  1  0  0  0
  9 10  1  0  0  0
  9 47  1  0  0  0
 10 11  2  0  0  0
 10 12  1  0  0  0
 12 13  1  0  0  0
 12 14  1  0  0  0
 12 48  1  0  0  0
 13 49  1  0  0  0
 13 50  1  0  0  0
 13 51  1  0  0  0
 14 15  1  0  0  0
 14 52  1  0  0  0
 14 53  1  0  0  0
 15 16  1  0  0  0
 15 54  1  0  0  0
 15 55  1  0  0  0
 16 17  1  0  0  0
 16 56  1  0  0  0
 16 57  1  0  0  0
 17 18  1  0  0  0
 17 34  1  0  0  0
 17 58  1  0  0  0
 18 19  1  0  0  0
 18 23  1  0  0  0
 19 20  1  0  0  0
 19 59  1  0  0  0
 19 60  1  0  0  0
 20 21  1  0  0  0
 20 61  1  0  0  0
 20 62  1  0  0  0
 21 22  2  0  0  0
 21 25  1  0  0  0
 22 23  1  0  0  0
 22 63  1  0  0  0
 23 24  2  0  0  0
 25 26  2  0  0  0
 25 32  1  0  0  0
 26 27  1  0  0  0
 26 28  1  0  0  0
 28 29  2  0  0  0
 28 64  1  0  0  0
 29 30  1  0  0  0
 29 65  1  0  0  0
 30 31  1  0  0  0
 30 32  2  0  0  0
 32 33  1  0  0  0
 34 35  1  0  0  0
 34 39  2  0  0  0
 35 36  2  0  0  0
 35 66  1  0  0  0
 36 37  1  0  0  0
 36 67  1  0  0  0
 37 38  2  0  0  0
 37 68  1  0  0  0
 38 39  1  0  0  0
 38 40  1  0  0  0
 39 69  1  0  0  0
 40 41  2  0  0  0
 41 70  1  0  0  0
M  END
> <chembl_id>
CHEMBL4106461

> <chembl_pref_name>
None

> <i_m_ct_stereo_status>
1

> <s_m_source_file>
sdf/inactives_sanitized.sdf

> <i_m_source_file_index>
84

> <i_lp_mmshare_version>
49012

> <i_f3d_flags>
0

> <s_epik_input>
W0NIM11PQyg9TyljKFtjSF1bY0hdMSlbY0hdYyhjMTIpYzNbY0hdW2NIXVtjSF1jKFtjSF0zKVtDQEhdKFtDSDJdW0NIMl1bQ0gyXVtDQEBIXShbQ0gzXSlDKD1PKVtOSF0yKU40W0NIMl1bQ0gyXUMoPVtDSF1DND1PKWM1YyhGKVtjSF1bY0hdYyhDbCljNUY=

> <s_epik_cmdline>
J2VwaWtfcHl0aG9uJywgJy1waHQnLCAnMC41JywgJy1waCcsICc3LjUnLCAnLW50JywgJy1tYScsICcyMDAnLCAnLWltYWUnLCAnPGluZmlsZS5tYWU+JywgJy1vbWFlJywgJzxvdXRmaWxlLm1hZT4n

> <r_lp_tautomer_probability>
1

> <r_epik_Ionization_Penalty>
  0.0000

> <r_epik_Ionization_Penalty_Charging>
  0.0000

> <r_epik_Ionization_Penalty_Neutral>
  0.0000

> <r_epik_State_Penalty>
 -0.0000

> <r_epik_Charging_Adjusted_Penalty>
0

> <i_epik_Tot_Q>
0

> <i_epik_Tot_abs_Q>
0

> <s_epik_Chemistry_Notes>
This compound has an ester and may undergo hydrolysis at high or low pH.

> <s_lp_Force_Field>
OPLS3e

> <r_lp_Energy>
91.713419

> <b_lp_Chiralities_Consistent>
1

> <s_lp_Variant>
sdf/inactives_sanitized.sdf:84-1

$$$$
sdf/inactives_sanitized.sdf:85
                    3D
 Schrodinger Suite 2020-1.
 60 64  0  0  1  0            999 V2000
   -3.8148    3.5318   -3.2825 C   0  0  0  0  0  0
   -2.6439    2.7203   -2.6868 C   0  0  2  0  0  0
   -2.6053    2.8616   -1.1264 C   0  0  0  0  0  0
   -1.9970    1.6760   -0.3327 C   0  0  0  0  0  0
   -0.4471    1.6141   -0.2423 C   0  0  0  0  0  0
    0.1356    0.1624   -0.2083 C   0  0  2  0  0  0
    1.6050    0.1276   -0.0316 N   0  0  0  0  0  0
    2.4710    0.8283   -1.0247 C   0  0  0  0  0  0
    3.8637    1.1866   -0.4431 C   0  0  0  0  0  0
    4.4413   -0.0445    0.2357 C   0  0  0  0  0  0
    3.5856   -0.8630    0.8817 C   0  0  0  0  0  0
    2.1451   -0.7175    0.9080 C   0  0  0  0  0  0
    1.4882   -1.3077    1.7675 O   0  0  0  0  0  0
    5.9059   -0.1904    0.4346 C   0  0  0  0  0  0
    6.6928    0.8931    0.8631 C   0  0  0  0  0  0
    6.1352    2.0973    1.1294 F   0  0  0  0  0  0
    8.0679    0.7449    1.0428 C   0  0  0  0  0  0
    8.6799   -0.4809    0.7984 C   0  0  0  0  0  0
    7.9177   -1.5653    0.3702 C   0  0  0  0  0  0
    8.6922   -3.0795    0.0644 Cl  0  0  0  0  0  0
    6.5387   -1.4228    0.1874 C   0  0  0  0  0  0
    5.8182   -2.4853   -0.2475 F   0  0  0  0  0  0
   -0.3148   -0.6769   -1.4090 C   0  0  0  0  0  0
   -0.4304   -0.0861   -2.6667 C   0  0  0  0  0  0
   -1.2198   -0.6901   -3.6458 C   0  0  0  0  0  0
   -1.7157   -1.9759   -3.3871 C   0  0  0  0  0  0
   -1.4633   -2.5600   -2.1420 C   0  0  0  0  0  0
   -0.8074   -1.9150   -1.1425 N   0  0  0  0  0  0
   -1.6171    0.0846   -4.8648 C   0  0  0  0  0  0
   -2.2958   -0.4020   -5.9992 C   0  0  0  0  0  0
   -2.5664    0.5188   -6.8951 N   0  0  0  0  0  0
   -2.0689    1.6383   -6.3697 N   0  0  0  0  0  0
   -1.4794    1.4521   -5.1493 C   0  0  0  0  0  0
   -0.8689    2.5055   -4.4944 N   0  0  0  0  0  0
   -1.3272    3.1422   -3.3929 C   0  0  0  0  0  0
   -0.6873    4.0925   -2.9447 O   0  0  0  0  0  0
   -3.8886    3.3991   -4.3632 H   0  0  0  0  0  0
   -3.7057    4.6003   -3.0900 H   0  0  0  0  0  0
   -4.7694    3.2165   -2.8600 H   0  0  0  0  0  0
   -2.8546    1.6746   -2.9081 H   0  0  0  0  0  0
   -2.1462    3.8021   -0.8172 H   0  0  0  0  0  0
   -3.6365    2.9435   -0.7787 H   0  0  0  0  0  0
   -2.3822    1.7084    0.6876 H   0  0  0  0  0  0
   -2.4095    0.7537   -0.7411 H   0  0  0  0  0  0
   -0.0094    2.1884   -1.0550 H   0  0  0  0  0  0
   -0.1365    2.1414    0.6608 H   0  0  0  0  0  0
   -0.3403   -0.2883    0.6651 H   0  0  0  0  0  0
    2.6765    0.0818   -1.7938 H   0  0  0  0  0  0
    1.9717    1.6391   -1.5522 H   0  0  0  0  0  0
    4.5277    1.5616   -1.2229 H   0  0  0  0  0  0
    3.7278    1.9826    0.2902 H   0  0  0  0  0  0
    3.9879   -1.6834    1.4597 H   0  0  0  0  0  0
    8.6615    1.5833    1.3769 H   0  0  0  0  0  0
    9.7454   -0.5870    0.9413 H   0  0  0  0  0  0
   -0.0018    0.8860   -2.8212 H   0  0  0  0  0  0
   -2.3189   -2.5015   -4.1122 H   0  0  0  0  0  0
   -1.8441   -3.5435   -1.9093 H   0  0  0  0  0  0
   -2.5986   -1.4262   -6.1598 H   0  0  0  0  0  0
   -2.1233    2.5246   -6.8505 H   0  0  0  0  0  0
    0.0105    2.8185   -4.8792 H   0  0  0  0  0  0
  1  2  1  0  0  0
  1 37  1  0  0  0
  1 38  1  0  0  0
  1 39  1  0  0  0
  2  3  1  0  0  0
  2 35  1  0  0  0
  2 40  1  0  0  0
  3  4  1  0  0  0
  3 41  1  0  0  0
  3 42  1  0  0  0
  4  5  1  0  0  0
  4 43  1  0  0  0
  4 44  1  0  0  0
  5  6  1  0  0  0
  5 45  1  0  0  0
  5 46  1  0  0  0
  6  7  1  0  0  0
  6 23  1  0  0  0
  6 47  1  0  0  0
  7  8  1  0  0  0
  7 12  1  0  0  0
  8  9  1  0  0  0
  8 48  1  0  0  0
  8 49  1  0  0  0
  9 10  1  0  0  0
  9 50  1  0  0  0
  9 51  1  0  0  0
 10 11  2  0  0  0
 10 14  1  0  0  0
 11 12  1  0  0  0
 11 52  1  0  0  0
 12 13  2  0  0  0
 14 15  2  0  0  0
 14 21  1  0  0  0
 15 16  1  0  0  0
 15 17  1  0  0  0
 17 18  2  0  0  0
 17 53  1  0  0  0
 18 19  1  0  0  0
 18 54  1  0  0  0
 19 20  1  0  0  0
 19 21  2  0  0  0
 21 22  1  0  0  0
 23 24  1  0  0  0
 23 28  2  0  0  0
 24 25  2  0  0  0
 24 55  1  0  0  0
 25 26  1  0  0  0
 25 29  1  0  0  0
 26 27  2  0  0  0
 26 56  1  0  0  0
 27 28  1  0  0  0
 27 57  1  0  0  0
 29 30  1  0  0  0
 29 33  2  0  0  0
 30 31  2  0  0  0
 30 58  1  0  0  0
 31 32  1  0  0  0
 32 33  1  0  0  0
 32 59  1  0  0  0
 33 34  1  0  0  0
 34 35  1  0  0  0
 34 60  1  0  0  0
 35 36  2  0  0  0
M  END
> <chembl_id>
CHEMBL4108453

> <chembl_pref_name>
None

> <i_m_ct_stereo_status>
1

> <s_m_source_file>
sdf/inactives_sanitized.sdf

> <i_m_source_file_index>
85

> <i_lp_mmshare_version>
49012

> <i_f3d_flags>
0

> <s_epik_input>
bjFbY0hdW2NIXWMoW2NIXWMxMiljM2MoW25IXW5bY0hdMylbTkhdQyg9TylbQ0BIXShbQ0gzXSlbQ0gyXVtDSDJdW0NIMl1bQ0BASF0yTjRbQ0gyXVtDSDJdQyg9W0NIXUM0PU8pYzVjKEYpW2NIXVtjSF1jKENsKWM1Rg==

> <s_epik_cmdline>
J2VwaWtfcHl0aG9uJywgJy1waHQnLCAnMC41JywgJy1waCcsICc3LjUnLCAnLW50JywgJy1tYScsICcyMDAnLCAnLWltYWUnLCAnPGluZmlsZS5tYWU+JywgJy1vbWFlJywgJzxvdXRmaWxlLm1hZT4n

> <r_lp_tautomer_probability>
1

> <r_epik_Ionization_Penalty>
  0.0001

> <r_epik_Ionization_Penalty_Charging>
  0.0000

> <r_epik_Ionization_Penalty_Neutral>
  0.0001

> <r_epik_State_Penalty>
 -0.0000

> <r_epik_Charging_Adjusted_Penalty>
0

> <i_epik_Tot_Q>
0

> <i_epik_Tot_abs_Q>
0

> <s_lp_Force_Field>
OPLS3e

> <r_lp_Energy>
83.132401

> <b_lp_Chiralities_Consistent>
1

> <s_lp_Variant>
sdf/inactives_sanitized.sdf:85-1

$$$$
sdf/inactives_sanitized.sdf:86
                    3D
 Schrodinger Suite 2020-1.
 68 72  0  0  1  0            999 V2000
   -3.1664    1.4929   -0.3735 C   0  0  0  0  0  0
   -2.0200    0.7064   -0.0796 O   0  0  0  0  0  0
   -0.7787    1.1860   -0.2960 C   0  0  0  0  0  0
   -0.5365    2.3072   -0.7480 O   0  0  0  0  0  0
    0.1381    0.2088    0.0796 N   0  0  0  0  0  0
    1.5428    0.2388    0.0496 C   0  0  0  0  0  0
    2.3061    1.3157   -0.4235 C   0  0  0  0  0  0
    3.6976    1.2535   -0.3979 C   0  0  0  0  0  0
    4.3635    0.1277    0.0977 C   0  0  0  0  0  0
    3.5944   -0.9692    0.5450 C   0  0  0  0  0  0
    4.1585   -2.1426    1.0720 N   0  0  0  0  0  0
    4.8233   -3.1188    0.4120 C   0  0  0  0  0  0
    5.1970   -4.1137    1.0321 O   0  0  0  0  0  0
    5.1332   -3.0331   -1.1066 C   0  0  2  0  0  0
    4.3228   -4.0828   -1.8939 C   0  0  0  0  0  0
    6.6629   -3.1669   -1.3679 C   0  0  0  0  0  0
    7.1375   -2.6721   -2.7606 C   0  0  0  0  0  0
    8.5471   -2.0190   -2.7746 C   0  0  0  0  0  0
    8.5964   -0.4893   -2.4637 C   0  0  2  0  0  0
    9.9607    0.0664   -2.5694 N   0  0  0  0  0  0
   11.1602   -0.6276   -2.1552 C   0  0  0  0  0  0
   12.1863    0.4362   -2.3055 C   0  0  0  0  0  0
   11.6219    1.5719   -2.7358 C   0  0  0  0  0  0
   10.1984    1.3611   -2.8924 C   0  0  0  0  0  0
    9.3668    2.1958   -3.2481 O   0  0  0  0  0  0
   13.6154    0.2546   -2.0138 C   0  0  0  0  0  0
   14.4963   -0.1649   -3.0198 C   0  0  0  0  0  0
   14.0436   -0.4083   -4.2727 F   0  0  0  0  0  0
   15.8520   -0.3378   -2.7403 C   0  0  0  0  0  0
   16.3384   -0.0964   -1.4568 C   0  0  0  0  0  0
   15.4697    0.3183   -0.4473 C   0  0  0  0  0  0
   16.0871    0.6101    1.1400 Cl  0  0  0  0  0  0
   14.1100    0.4934   -0.7238 C   0  0  0  0  0  0
   13.2703    0.8941    0.2616 F   0  0  0  0  0  0
    7.9019   -0.1586   -1.1387 C   0  0  0  0  0  0
    6.5265    0.0811   -1.1306 C   0  0  0  0  0  0
    5.8471    0.1105    0.0899 C   0  0  0  0  0  0
    6.5924    0.0359    1.2729 C   0  0  0  0  0  0
    7.9792   -0.1038    1.1877 C   0  0  0  0  0  0
    8.6369   -0.2215    0.0061 N   0  0  0  0  0  0
    2.1981   -0.8965    0.5315 C   0  0  0  0  0  0
   -4.0700    0.9407   -0.1155 H   0  0  0  0  0  0
   -3.2102    1.7387   -1.4354 H   0  0  0  0  0  0
   -3.1621    2.4223    0.1980 H   0  0  0  0  0  0
   -0.2604   -0.6494    0.4311 H   0  0  0  0  0  0
    1.8536    2.2127   -0.8135 H   0  0  0  0  0  0
    4.2648    2.0975   -0.7640 H   0  0  0  0  0  0
    3.9422   -2.3230    2.0414 H   0  0  0  0  0  0
    4.8134   -2.0613   -1.4754 H   0  0  0  0  0  0
    3.2506   -3.9597   -1.7341 H   0  0  0  0  0  0
    4.5835   -5.1008   -1.6002 H   0  0  0  0  0  0
    4.4996   -3.9941   -2.9662 H   0  0  0  0  0  0
    7.2057   -2.6262   -0.5935 H   0  0  0  0  0  0
    6.9769   -4.2030   -1.2284 H   0  0  0  0  0  0
    7.1338   -3.5254   -3.4402 H   0  0  0  0  0  0
    6.4204   -1.9720   -3.1903 H   0  0  0  0  0  0
    9.2064   -2.5701   -2.1022 H   0  0  0  0  0  0
    8.9653   -2.1639   -3.7720 H   0  0  0  0  0  0
    8.0115    0.0006   -3.2451 H   0  0  0  0  0  0
   11.0731   -0.9865   -1.1289 H   0  0  0  0  0  0
   11.3515   -1.4936   -2.7894 H   0  0  0  0  0  0
   12.1311    2.5049   -2.9264 H   0  0  0  0  0  0
   16.5272   -0.6602   -3.5194 H   0  0  0  0  0  0
   17.3894   -0.2327   -1.2475 H   0  0  0  0  0  0
    5.9740    0.1107   -2.0588 H   0  0  0  0  0  0
    6.1051    0.0651    2.2366 H   0  0  0  0  0  0
    8.5816   -0.1654    2.0820 H   0  0  0  0  0  0
    1.6179   -1.7338    0.8960 H   0  0  0  0  0  0
  1  2  1  0  0  0
  1 42  1  0  0  0
  1 43  1  0  0  0
  1 44  1  0  0  0
  2  3  1  0  0  0
  3  4  2  0  0  0
  3  5  1  0  0  0
  5  6  1  0  0  0
  5 45  1  0  0  0
  6  7  2  0  0  0
  6 41  1  0  0  0
  7  8  1  0  0  0
  7 46  1  0  0  0
  8  9  2  0  0  0
  8 47  1  0  0  0
  9 10  1  0  0  0
  9 37  1  0  0  0
 10 11  1  0  0  0
 10 41  2  0  0  0
 11 12  1  0  0  0
 11 48  1  0  0  0
 12 13  2  0  0  0
 12 14  1  0  0  0
 14 15  1  0  0  0
 14 16  1  0  0  0
 14 49  1  0  0  0
 15 50  1  0  0  0
 15 51  1  0  0  0
 15 52  1  0  0  0
 16 17  1  0  0  0
 16 53  1  0  0  0
 16 54  1  0  0  0
 17 18  1  0  0  0
 17 55  1  0  0  0
 17 56  1  0  0  0
 18 19  1  0  0  0
 18 57  1  0  0  0
 18 58  1  0  0  0
 19 20  1  0  0  0
 19 35  1  0  0  0
 19 59  1  0  0  0
 20 21  1  0  0  0
 20 24  1  0  0  0
 21 22  1  0  0  0
 21 60  1  0  0  0
 21 61  1  0  0  0
 22 23  2  0  0  0
 22 26  1  0  0  0
 23 24  1  0  0  0
 23 62  1  0  0  0
 24 25  2  0  0  0
 26 27  2  0  0  0
 26 33  1  0  0  0
 27 28  1  0  0  0
 27 29  1  0  0  0
 29 30  2  0  0  0
 29 63  1  0  0  0
 30 31  1  0  0  0
 30 64  1  0  0  0
 31 32  1  0  0  0
 31 33  2  0  0  0
 33 34  1  0  0  0
 35 36  1  0  0  0
 35 40  2  0  0  0
 36 37  2  0  0  0
 36 65  1  0  0  0
 37 38  1  0  0  0
 38 39  2  0  0  0
 38 66  1  0  0  0
 39 40  1  0  0  0
 39 67  1  0  0  0
 41 68  1  0  0  0
M  END
> <chembl_id>
CHEMBL4109747

> <chembl_pref_name>
None

> <i_m_ct_stereo_status>
1

> <s_m_source_file>
sdf/inactives_sanitized.sdf

> <i_m_source_file_index>
86

> <i_lp_mmshare_version>
49012

> <i_f3d_flags>
0

> <s_epik_input>
W0NIM11PQyg9TylbTkhdYyhbY0hdW2NIXTEpW2NIXWMoYzEyKVtOSF1DKD1PKVtDQEhdKFtDSDNdKVtDSDJdW0NIMl1bQ0gyXVtDQEBIXShjM1tjSF1jMltjSF1bY0hdbjMpTjRbQ0gyXUMoPVtDSF1DND1PKWM1YyhGKVtjSF1bY0hdYyhDbCljNUY=

> <s_epik_cmdline>
J2VwaWtfcHl0aG9uJywgJy1waHQnLCAnMC41JywgJy1waCcsICc3LjUnLCAnLW50JywgJy1tYScsICcyMDAnLCAnLWltYWUnLCAnPGluZmlsZS5tYWU+JywgJy1vbWFlJywgJzxvdXRmaWxlLm1hZT4n

> <r_lp_tautomer_probability>
1

> <r_epik_Ionization_Penalty>
  0.0001

> <r_epik_Ionization_Penalty_Charging>
  0.0000

> <r_epik_Ionization_Penalty_Neutral>
  0.0001

> <r_epik_State_Penalty>
 -0.0000

> <r_epik_Charging_Adjusted_Penalty>
0

> <i_epik_Tot_Q>
0

> <i_epik_Tot_abs_Q>
0

> <s_epik_Chemistry_Notes>
This compound has an ester and may undergo hydrolysis at high or low pH.

> <s_lp_Force_Field>
OPLS3e

> <r_lp_Energy>
49.703875

> <b_lp_Chiralities_Consistent>
1

> <s_lp_Variant>
sdf/inactives_sanitized.sdf:86-1

$$$$
sdf/inactives_sanitized.sdf:87
                    3D
 Schrodinger Suite 2020-1.
 70 74  0  0  1  0            999 V2000
   -1.7420   -1.6217   -0.1624 C   0  0  0  0  0  0
   -0.3431   -1.4021   -0.0476 O   0  0  0  0  0  0
    0.1731   -0.1481   -0.1030 C   0  0  0  0  0  0
   -0.5152    0.8659   -0.2536 O   0  0  0  0  0  0
    1.6676   -0.1166    0.0341 C   0  0  0  0  0  0
    2.4309   -1.2844    0.1835 C   0  0  0  0  0  0
    3.8187   -1.2192    0.2821 C   0  0  0  0  0  0
    4.4759    0.0111    0.2240 C   0  0  0  0  0  0
    5.8766   -0.0116    0.3182 N   0  0  0  0  0  0
    6.7767    0.2254   -0.6644 C   0  0  0  0  0  0
    7.9766    0.1003   -0.4221 O   0  0  0  0  0  0
    6.3502    0.6501   -2.0959 C   0  0  2  0  0  0
    6.6470   -0.4688   -3.1152 C   0  0  0  0  0  0
    7.0209    1.9969   -2.5008 C   0  0  0  0  0  0
    6.3417    2.7397   -3.6835 C   0  0  0  0  0  0
    6.3600    4.2943   -3.5774 C   0  0  0  0  0  0
    5.1661    4.9678   -2.8202 C   0  0  1  0  0  0
    3.8627    5.0134   -3.5543 N   0  0  0  0  0  0
    3.7482    4.5150   -4.9599 C   0  0  0  0  0  0
    2.3185    4.0194   -5.2996 C   0  0  0  0  0  0
    1.3136    5.0562   -4.8458 C   0  0  0  0  0  0
    1.5944    5.8008   -3.7614 C   0  0  0  0  0  0
    2.8224    5.7304   -2.9989 C   0  0  0  0  0  0
    2.8597    6.2570   -1.8852 O   0  0  0  0  0  0
   -0.0594    5.0292   -5.3807 C   0  0  0  0  0  0
   -1.0393    4.1884   -4.8246 C   0  0  0  0  0  0
   -0.6497    3.0400   -3.3480 Br  0  0  0  0  0  0
   -2.3325    4.1803   -5.3483 C   0  0  0  0  0  0
   -2.6610    5.0021   -6.4242 C   0  0  0  0  0  0
   -1.6957    5.8375   -6.9844 C   0  0  0  0  0  0
   -2.1180    6.8496   -8.3198 Cl  0  0  0  0  0  0
   -0.3976    5.8514   -6.4655 C   0  0  0  0  0  0
    0.5357    6.6652   -7.0168 F   0  0  0  0  0  0
    5.0654    4.3796   -1.4057 C   0  0  0  0  0  0
    5.7646    4.9437   -0.3347 C   0  0  0  0  0  0
    5.7649    4.3091    0.9091 C   0  0  0  0  0  0
    5.0889    3.0988    1.0792 C   0  0  0  0  0  0
    4.3693    2.5377    0.0187 C   0  0  0  0  0  0
    4.3157    3.2200   -1.1951 C   0  0  0  0  0  0
    3.7291    1.2025    0.1107 C   0  0  0  0  0  0
    2.3357    1.1155    0.0046 C   0  0  0  0  0  0
   -1.9543   -2.6892   -0.1048 H   0  0  0  0  0  0
   -2.1199   -1.2516   -1.1166 H   0  0  0  0  0  0
   -2.2838   -1.1227    0.6423 H   0  0  0  0  0  0
    1.9653   -2.2589    0.2175 H   0  0  0  0  0  0
    4.3818   -2.1357    0.3877 H   0  0  0  0  0  0
    6.2435   -0.3511    1.1953 H   0  0  0  0  0  0
    5.2724    0.7954   -2.1107 H   0  0  0  0  0  0
    6.1442   -1.3986   -2.8441 H   0  0  0  0  0  0
    7.7149   -0.6817   -3.1842 H   0  0  0  0  0  0
    6.3001   -0.1952   -4.1123 H   0  0  0  0  0  0
    7.0453    2.6565   -1.6337 H   0  0  0  0  0  0
    8.0749    1.8355   -2.7339 H   0  0  0  0  0  0
    6.8431    2.4397   -4.6046 H   0  0  0  0  0  0
    5.3140    2.3973   -3.8024 H   0  0  0  0  0  0
    7.2931    4.6004   -3.1016 H   0  0  0  0  0  0
    6.4336    4.7266   -4.5760 H   0  0  0  0  0  0
    5.4598    6.0138   -2.7101 H   0  0  0  0  0  0
    3.8882    5.4008   -5.5817 H   0  0  0  0  0  0
    4.5364    3.8353   -5.2735 H   0  0  0  0  0  0
    2.2117    3.8036   -6.3632 H   0  0  0  0  0  0
    2.1364    3.0847   -4.7673 H   0  0  0  0  0  0
    0.8292    6.4626   -3.3799 H   0  0  0  0  0  0
   -3.0850    3.5352   -4.9189 H   0  0  0  0  0  0
   -3.6654    4.9888   -6.8219 H   0  0  0  0  0  0
    6.3360    5.8498   -0.4729 H   0  0  0  0  0  0
    6.3209    4.7353    1.7310 H   0  0  0  0  0  0
    5.1388    2.5888    2.0303 H   0  0  0  0  0  0
    3.7741    2.7801   -2.0205 H   0  0  0  0  0  0
    1.7728    2.0323   -0.1102 H   0  0  0  0  0  0
  1  2  1  0  0  0
  1 42  1  0  0  0
  1 43  1  0  0  0
  1 44  1  0  0  0
  2  3  1  0  0  0
  3  4  2  0  0  0
  3  5  1  0  0  0
  5  6  2  0  0  0
  5 41  1  0  0  0
  6  7  1  0  0  0
  6 45  1  0  0  0
  7  8  2  0  0  0
  7 46  1  0  0  0
  8  9  1  0  0  0
  8 40  1  0  0  0
  9 10  1  0  0  0
  9 47  1  0  0  0
 10 11  2  0  0  0
 10 12  1  0  0  0
 12 13  1  0  0  0
 12 14  1  0  0  0
 12 48  1  0  0  0
 13 49  1  0  0  0
 13 50  1  0  0  0
 13 51  1  0  0  0
 14 15  1  0  0  0
 14 52  1  0  0  0
 14 53  1  0  0  0
 15 16  1  0  0  0
 15 54  1  0  0  0
 15 55  1  0  0  0
 16 17  1  0  0  0
 16 56  1  0  0  0
 16 57  1  0  0  0
 17 18  1  0  0  0
 17 34  1  0  0  0
 17 58  1  0  0  0
 18 19  1  0  0  0
 18 23  1  0  0  0
 19 20  1  0  0  0
 19 59  1  0  0  0
 19 60  1  0  0  0
 20 21  1  0  0  0
 20 61  1  0  0  0
 20 62  1  0  0  0
 21 22  2  0  0  0
 21 25  1  0  0  0
 22 23  1  0  0  0
 22 63  1  0  0  0
 23 24  2  0  0  0
 25 26  2  0  0  0
 25 32  1  0  0  0
 26 27  1  0  0  0
 26 28  1  0  0  0
 28 29  2  0  0  0
 28 64  1  0  0  0
 29 30  1  0  0  0
 29 65  1  0  0  0
 30 31  1  0  0  0
 30 32  2  0  0  0
 32 33  1  0  0  0
 34 35  1  0  0  0
 34 39  2  0  0  0
 35 36  2  0  0  0
 35 66  1  0  0  0
 36 37  1  0  0  0
 36 67  1  0  0  0
 37 38  2  0  0  0
 37 68  1  0  0  0
 38 39  1  0  0  0
 38 40  1  0  0  0
 39 69  1  0  0  0
 40 41  2  0  0  0
 41 70  1  0  0  0
M  END
> <chembl_id>
CHEMBL4108372

> <chembl_pref_name>
None

> <i_m_ct_stereo_status>
1

> <s_m_source_file>
sdf/inactives_sanitized.sdf

> <i_m_source_file_index>
87

> <i_lp_mmshare_version>
49012

> <i_f3d_flags>
0

> <s_epik_input>
W0NIM11PQyg9TyljKFtjSF1bY0hdMSlbY0hdYyhjMTIpYzNbY0hdW2NIXVtjSF1jKFtjSF0zKVtDQEBIXShbQ0gyXVtDSDJdW0NIMl1bQ0BASF0oW0NIM10pQyg9TylbTkhdMilONFtDSDJdW0NIMl1DKD1bQ0hdQzQ9TyljNWMoQnIpW2NIXVtjSF1jKENsKWM1Rg==

> <s_epik_cmdline>
J2VwaWtfcHl0aG9uJywgJy1waHQnLCAnMC41JywgJy1waCcsICc3LjUnLCAnLW50JywgJy1tYScsICcyMDAnLCAnLWltYWUnLCAnPGluZmlsZS5tYWU+JywgJy1vbWFlJywgJzxvdXRmaWxlLm1hZT4n

> <r_lp_tautomer_probability>
1

> <r_epik_Ionization_Penalty>
  0.0000

> <r_epik_Ionization_Penalty_Charging>
  0.0000

> <r_epik_Ionization_Penalty_Neutral>
  0.0000

> <r_epik_State_Penalty>
 -0.0000

> <r_epik_Charging_Adjusted_Penalty>
0

> <i_epik_Tot_Q>
0

> <i_epik_Tot_abs_Q>
0

> <s_epik_Chemistry_Notes>
This compound has an ester and may undergo hydrolysis at high or low pH.

> <s_lp_Force_Field>
OPLS3e

> <r_lp_Energy>
84.451253

> <b_lp_Chiralities_Consistent>
1

> <s_lp_Variant>
sdf/inactives_sanitized.sdf:87-1

$$$$
sdf/inactives_sanitized.sdf:88
                    3D
 Schrodinger Suite 2020-1.
 60 63  0  0  1  0            999 V2000
   -0.3138   -0.5230    1.1497 C   0  0  2  0  0  0
   -0.0991    0.4356   -0.0436 C   0  0  2  0  0  0
   -1.1590   -0.0069   -1.0862 C   0  0  0  0  0  0
   -1.3537   -1.4586   -0.7852 N   0  0  2  0  0  0
   -0.6412   -1.8588    0.4593 C   0  0  0  0  0  0
   -1.4774   -0.0118    2.0443 C   0  0  0  0  0  0
   -1.0989    0.6517    3.1604 N   0  0  0  0  0  0
   -2.6462   -0.3050    1.7805 O   0  0  0  0  0  0
   -1.9094    1.2003    4.1709 C   0  0  0  0  0  0
    1.3612    0.2953   -0.5635 C   0  0  0  0  0  0
    1.6492   -0.5717   -1.3906 O   0  0  0  0  0  0
    2.2164    1.2537   -0.1432 N   0  0  0  0  0  0
    3.5817    1.4216   -0.4494 C   0  0  0  0  0  0
    4.4130    0.3873   -0.9116 C   0  0  0  0  0  0
    5.7557    0.6332   -1.1953 C   0  0  0  0  0  0
    6.2967    1.9141   -1.0220 C   0  0  0  0  0  0
    5.4699    2.9427   -0.5476 C   0  0  0  0  0  0
    4.1259    2.6997   -0.2635 C   0  0  0  0  0  0
    7.6625    2.1568   -1.3097 N   0  0  0  0  0  0
    8.0252    3.1201   -2.2383 C   0  0  0  0  0  0
    9.4692    3.2609   -2.4431 C   0  0  0  0  0  0
   10.3853    2.4610   -1.8483 C   0  0  0  0  0  0
    9.9414    1.4348   -0.9225 C   0  0  0  0  0  0
    8.6141    1.3488   -0.7057 C   0  0  0  0  0  0
   -3.2500    1.3922    3.9953 N   0  0  0  0  0  0
   -3.9634    1.9465    5.0080 C   0  0  0  0  0  0
   -3.3824    2.3347    6.2155 C   0  0  0  0  0  0
   -2.0105    2.1436    6.3869 C   0  0  0  0  0  0
   -1.2620    1.5733    5.3549 C   0  0  0  0  0  0
   -4.3385    3.0388    7.4676 Cl  0  0  0  0  0  0
    7.2347    3.8017   -2.8946 O   0  0  0  0  0  0
    3.3576    3.7184    0.1922 F   0  0  0  0  0  0
   -1.4565   -2.6170   -2.1124 S   0  0  0  0  0  0
   -3.0542   -2.1251   -2.9967 C   0  0  0  0  0  0
   -0.3264   -2.3675   -3.0140 O   0  0  0  0  0  0
   -1.6462   -3.9482   -1.5250 O   0  0  0  0  0  0
   -3.3131   -3.0620   -4.1825 C   0  0  0  0  0  0
    0.5759   -0.5591    1.7843 H   0  0  0  0  0  0
   -0.2143    1.4743    0.2784 H   0  0  0  0  0  0
   -2.0508    0.5735   -0.8470 H   0  0  0  0  0  0
   -0.7661    0.1708   -2.0887 H   0  0  0  0  0  0
   -1.1840   -2.6170    1.0253 H   0  0  0  0  0  0
    0.3070   -2.3274    0.1917 H   0  0  0  0  0  0
   -0.1070    0.7110    3.3371 H   0  0  0  0  0  0
    1.8149    2.0073    0.3953 H   0  0  0  0  0  0
    4.0460   -0.6184   -1.0452 H   0  0  0  0  0  0
    6.3726   -0.1778   -1.5553 H   0  0  0  0  0  0
    5.8687    3.9359   -0.3965 H   0  0  0  0  0  0
    9.8078    4.0325   -3.1194 H   0  0  0  0  0  0
   11.4394    2.6010   -2.0399 H   0  0  0  0  0  0
   10.6422    0.7829   -0.4215 H   0  0  0  0  0  0
    8.1953    0.6269   -0.0176 H   0  0  0  0  0  0
   -5.0211    2.0794    4.8341 H   0  0  0  0  0  0
   -1.5287    2.4352    7.3088 H   0  0  0  0  0  0
   -0.1988    1.4260    5.4816 H   0  0  0  0  0  0
   -3.8628   -2.1666   -2.2669 H   0  0  0  0  0  0
   -2.9501   -1.0892   -3.3190 H   0  0  0  0  0  0
   -4.2291   -2.7861   -4.7051 H   0  0  0  0  0  0
   -3.4175   -4.0957   -3.8517 H   0  0  0  0  0  0
   -2.4944   -3.0228   -4.9019 H   0  0  0  0  0  0
  1  5  1  0  0  0
  1  2  1  0  0  0
  1  6  1  0  0  0
  1 38  1  0  0  0
  2 10  1  0  0  0
  2  3  1  0  0  0
  2 39  1  0  0  0
  3  4  1  0  0  0
  3 40  1  0  0  0
  3 41  1  0  0  0
  4  5  1  0  0  0
  4 33  1  0  0  0
  5 42  1  0  0  0
  5 43  1  0  0  0
  6  7  1  0  0  0
  6  8  2  0  0  0
  7  9  1  0  0  0
  7 44  1  0  0  0
  9 25  2  0  0  0
  9 29  1  0  0  0
 10 11  2  0  0  0
 10 12  1  0  0  0
 12 13  1  0  0  0
 12 45  1  0  0  0
 13 18  1  0  0  0
 13 14  2  0  0  0
 14 15  1  0  0  0
 14 46  1  0  0  0
 15 16  2  0  0  0
 15 47  1  0  0  0
 16 19  1  0  0  0
 16 17  1  0  0  0
 17 18  2  0  0  0
 17 48  1  0  0  0
 18 32  1  0  0  0
 19 20  1  0  0  0
 19 24  1  0  0  0
 20 21  1  0  0  0
 20 31  2  0  0  0
 21 22  2  0  0  0
 21 49  1  0  0  0
 22 23  1  0  0  0
 22 50  1  0  0  0
 23 24  2  0  0  0
 23 51  1  0  0  0
 24 52  1  0  0  0
 25 26  1  0  0  0
 26 27  2  0  0  0
 26 53  1  0  0  0
 27 28  1  0  0  0
 27 30  1  0  0  0
 28 29  2  0  0  0
 28 54  1  0  0  0
 29 55  1  0  0  0
 33 34  1  0  0  0
 33 35  2  0  0  0
 33 36  2  0  0  0
 34 37  1  0  0  0
 34 56  1  0  0  0
 34 57  1  0  0  0
 37 58  1  0  0  0
 37 59  1  0  0  0
 37 60  1  0  0  0
M  END
> <chembl_id>
CHEMBL1221852

> <chembl_pref_name>
None

> <i_m_ct_stereo_status>
1

> <s_m_source_file>
sdf/inactives_sanitized.sdf

> <i_m_source_file_index>
88

> <i_lp_mmshare_version>
49012

> <i_f3d_flags>
0

> <s_epik_input>
W2NIXTFbY0hdYyhDbClbY0hdbmMxW05IXUMoPU8pW0NAQEhdMltDQEhdKFtDSDJdTihbQ0gyXTIpUyg9TykoPU8pW0NIMl1bQ0gzXSlDKD1PKVtOSF1jM1tjSF1bY0hdYyhbY0hdYzNGKS1uNGMoPU8pW2NIXVtjSF1bY0hdW2NIXTQ=

> <s_epik_cmdline>
J2VwaWtfcHl0aG9uJywgJy1waHQnLCAnMC41JywgJy1waCcsICc3LjUnLCAnLW50JywgJy1tYScsICcyMDAnLCAnLWltYWUnLCAnPGluZmlsZS5tYWU+JywgJy1vbWFlJywgJzxvdXRmaWxlLm1hZT4n

> <r_lp_tautomer_probability>
1

> <r_epik_Ionization_Penalty>
  0.0000

> <r_epik_Ionization_Penalty_Charging>
  0.0000

> <r_epik_Ionization_Penalty_Neutral>
  0.0000

> <r_epik_State_Penalty>
 -0.0000

> <r_epik_Charging_Adjusted_Penalty>
9.88443071754712e-08

> <i_epik_Tot_Q>
0

> <i_epik_Tot_abs_Q>
0

> <s_lp_Force_Field>
OPLS3e

> <r_lp_Energy>
51.059653

> <b_lp_Chiralities_Consistent>
1

> <s_lp_Variant>
sdf/inactives_sanitized.sdf:88-1

$$$$
sdf/inactives_sanitized.sdf:89
                    3D
 Schrodinger Suite 2020-1.
 68 73  0  0  1  0            999 V2000
   -0.1017   -0.0420    0.0350 C   0  0  0  0  0  0
   -0.8229   -1.1262    0.5489 C   0  0  0  0  0  0
   -2.2119   -1.0652    0.6139 C   0  0  0  0  0  0
   -2.8930    0.0722    0.1693 C   0  0  0  0  0  0
   -2.1654    1.1566   -0.3311 C   0  0  0  0  0  0
   -0.7769    1.1022   -0.4044 C   0  0  0  0  0  0
   -4.3762    0.1308    0.2458 C   0  0  0  0  0  0
   -5.1945    0.1315   -0.9038 C   0  0  0  0  0  0
   -6.5863    0.1918   -0.7647 C   0  0  0  0  0  0
   -7.1716    0.2540    0.4979 C   0  0  0  0  0  0
   -6.3693    0.2473    1.6351 C   0  0  0  0  0  0
   -4.9832    0.1835    1.5072 C   0  0  0  0  0  0
    1.3085   -0.0922   -0.0222 N   0  0  0  0  0  0
    4.8728   -4.3316   -3.8903 C   0  0  0  0  0  0
    3.4925   -1.9074   -3.8904 C   0  0  0  0  0  0
    4.2547   -2.2793   -2.7803 C   0  0  0  0  0  0
    4.9505   -3.4922   -2.7831 C   0  0  0  0  0  0
    4.3399   -1.4220   -1.6622 N   0  0  0  0  0  0
    5.3648   -0.2634   -0.1629 C   0  0  0  0  0  0
    5.5512   -1.0844   -1.1852 N   0  0  0  0  0  0
    3.4181   -2.7510   -4.9955 C   0  0  0  0  0  0
    4.1089   -3.9735   -5.0019 C   0  0  0  0  0  0
    4.0919   -4.8725   -6.0511 O   0  0  0  0  0  0
    3.3177   -4.5759   -7.2082 C   0  0  0  0  0  0
    6.4339    0.3288    0.6231 C   0  0  0  0  0  0
    3.9790   -0.0625    0.0418 C   0  0  0  0  0  0
    3.3382   -0.8220   -0.9330 C   0  0  0  0  0  0
    1.8765   -0.8873   -1.0204 C   0  0  0  0  0  0
    2.0161    0.6563    0.9190 C   0  0  0  0  0  0
    3.3031    0.6840    0.9650 N   0  0  0  0  0  0
    1.2241   -1.5424   -1.8379 O   0  0  0  0  0  0
    6.2148    1.0687    1.5807 O   0  0  0  0  0  0
    7.6803    0.0229    0.2408 N   0  0  0  0  0  0
   -4.6106    0.0151   -2.3097 C   0  0  0  0  0  0
   -4.1525    1.3606   -2.9080 N   0  3  0  0  0  0
   -3.4236    1.2232   -4.2523 C   0  0  0  0  0  0
   -3.4549    2.6409   -4.8150 C   0  0  0  0  0  0
   -4.7612    3.2626   -4.3164 C   0  0  0  0  0  0
   -5.2894    2.3600   -3.1944 C   0  0  0  0  0  0
   -0.3098   -2.0120    0.8953 H   0  0  0  0  0  0
   -2.7603   -1.9083    1.0089 H   0  0  0  0  0  0
   -2.6762    2.0499   -0.6596 H   0  0  0  0  0  0
   -0.2282    1.9471   -0.7952 H   0  0  0  0  0  0
   -7.2219    0.1862   -1.6384 H   0  0  0  0  0  0
   -8.2463    0.3013    0.5950 H   0  0  0  0  0  0
   -6.8206    0.2909    2.6156 H   0  0  0  0  0  0
   -4.3743    0.1812    2.4002 H   0  0  0  0  0  0
    5.4096   -5.2691   -3.8850 H   0  0  0  0  0  0
    2.9609   -0.9667   -3.9045 H   0  0  0  0  0  0
    5.5461   -3.7899   -1.9317 H   0  0  0  0  0  0
    2.8213   -2.4383   -5.8385 H   0  0  0  0  0  0
    3.4123   -5.3927   -7.9235 H   0  0  0  0  0  0
    3.6649   -3.6658   -7.6994 H   0  0  0  0  0  0
    2.2591   -4.4713   -6.9653 H   0  0  0  0  0  0
    1.4419    1.2354    1.6381 H   0  0  0  0  0  0
    7.8362   -0.5859   -0.5492 H   0  0  0  0  0  0
    8.4707    0.4027    0.7411 H   0  0  0  0  0  0
   -3.7245   -0.6218   -2.3271 H   0  0  0  0  0  0
   -5.3285   -0.3983   -3.0210 H   0  0  0  0  0  0
   -2.4311    0.8117   -4.0638 H   0  0  0  0  0  0
   -4.0011    0.5129   -4.8473 H   0  0  0  0  0  0
   -2.5973    3.2049   -4.4450 H   0  0  0  0  0  0
   -3.3979    2.6404   -5.9043 H   0  0  0  0  0  0
   -4.5990    4.2805   -3.9593 H   0  0  0  0  0  0
   -5.4939    3.3197   -5.1227 H   0  0  0  0  0  0
   -5.5290    2.8661   -2.2584 H   0  0  0  0  0  0
   -6.1465    1.7711   -3.5258 H   0  0  0  0  0  0
   -3.5120    1.7805   -2.2490 H   0  0  0  0  0  0
  1  6  2  0  0  0
  1 13  1  0  0  0
  1  2  1  0  0  0
  2  3  2  0  0  0
  2 40  1  0  0  0
  3  4  1  0  0  0
  3 41  1  0  0  0
  4  7  1  0  0  0
  4  5  2  0  0  0
  5  6  1  0  0  0
  5 42  1  0  0  0
  6 43  1  0  0  0
  7 12  2  0  0  0
  7  8  1  0  0  0
  8 34  1  0  0  0
  8  9  2  0  0  0
  9 10  1  0  0  0
  9 44  1  0  0  0
 10 11  2  0  0  0
 10 45  1  0  0  0
 11 12  1  0  0  0
 11 46  1  0  0  0
 12 47  1  0  0  0
 13 28  1  0  0  0
 13 29  1  0  0  0
 14 22  2  0  0  0
 14 17  1  0  0  0
 14 48  1  0  0  0
 15 21  2  0  0  0
 15 16  1  0  0  0
 15 49  1  0  0  0
 16 18  1  0  0  0
 16 17  2  0  0  0
 17 50  1  0  0  0
 18 27  1  0  0  0
 18 20  1  0  0  0
 19 25  1  0  0  0
 19 26  1  0  0  0
 19 20  2  0  0  0
 21 22  1  0  0  0
 21 51  1  0  0  0
 22 23  1  0  0  0
 23 24  1  0  0  0
 24 52  1  0  0  0
 24 53  1  0  0  0
 24 54  1  0  0  0
 25 32  2  0  0  0
 25 33  1  0  0  0
 26 27  2  0  0  0
 26 30  1  0  0  0
 27 28  1  0  0  0
 28 31  2  0  0  0
 29 30  2  0  0  0
 29 55  1  0  0  0
 33 56  1  0  0  0
 33 57  1  0  0  0
 34 35  1  0  0  0
 34 58  1  0  0  0
 34 59  1  0  0  0
 35 36  1  0  0  0
 35 39  1  0  0  0
 35 68  1  0  0  0
 36 37  1  0  0  0
 36 60  1  0  0  0
 36 61  1  0  0  0
 37 38  1  0  0  0
 37 62  1  0  0  0
 37 63  1  0  0  0
 38 39  1  0  0  0
 38 64  1  0  0  0
 38 65  1  0  0  0
 39 66  1  0  0  0
 39 67  1  0  0  0
M  CHG  1  35   1
M  END
> <chembl_id>
CHEMBL384526

> <chembl_pref_name>
None

> <s_m_source_file>
sdf/inactives_sanitized.sdf

> <i_m_source_file_index>
89

> <i_lp_mmshare_version>
49012

> <i_m_ct_stereo_status>
1

> <i_f3d_flags>
0

> <s_epik_input>
W2NIXTFbY0hdYyhPW0NIM10pW2NIXVtjSF1jMS1uKG5jMkMoPU8pW05IMl0pYyhjMjMpYyg9TyluKFtjSF1uMyktYzRbY0hdW2NIXWMoW2NIXVtjSF00KS1jNWMoW2NIXVtjSF1bY0hdW2NIXTUpW0NIMl1ONltDSDJdW0NIMl1bQ0gyXVtDSDJdNg==

> <s_epik_cmdline>
J2VwaWtfcHl0aG9uJywgJy1waHQnLCAnMC41JywgJy1waCcsICc3LjUnLCAnLW50JywgJy1tYScsICcyMDAnLCAnLWltYWUnLCAnPGluZmlsZS5tYWU+JywgJy1vbWFlJywgJzxvdXRmaWxlLm1hZT4n

> <r_epik_Ionization_Penalty>
  0.0326

> <r_epik_Ionization_Penalty_Charging>
  0.0322

> <r_epik_Ionization_Penalty_Neutral>
  0.0003

> <r_epik_State_Penalty>
  0.0267

> <r_epik_Charging_Adjusted_Penalty>
0.0588988185629136

> <i_epik_Tot_Q>
1

> <i_epik_Tot_abs_Q>
1

> <s_lp_Force_Field>
OPLS3e

> <r_lp_Energy>
94.815109

> <b_lp_Chiralities_Consistent>
1

> <s_lp_Variant>
sdf/inactives_sanitized.sdf:89-1

$$$$
sdf/inactives_sanitized.sdf:90
                    3D
 Schrodinger Suite 2020-1.
 57 61  0  0  1  0            999 V2000
    3.9587   -0.5164   -7.1834 N   0  0  0  0  0  0
   -0.1230   -0.1693    0.1661 C   0  0  0  0  0  0
    5.2830   -0.4755   -7.5765 C   0  0  0  0  0  0
   -0.6960    1.0936   -0.2086 C   0  0  0  0  0  0
    5.4794   -0.5777   -8.8639 N   0  0  0  0  0  0
   -1.1087   -1.1363    0.2690 C   0  0  0  0  0  0
    2.0919   -0.8638   -0.8814 C   0  0  0  0  0  0
   -2.7259   -0.5873   -0.0637 S   0  0  0  0  0  0
    3.2331   -0.6623   -8.3593 C   0  0  0  0  0  0
    1.3779   -0.3789    0.4043 C   0  0  2  0  0  0
   -0.0716    2.3370   -0.4329 C   0  0  0  0  0  0
   -0.1528    4.7503   -1.0283 C   0  0  0  0  0  0
   -0.8164    3.4671   -0.7989 C   0  0  0  0  0  0
    1.9659   -0.0564   -1.9589 N   0  0  0  0  0  0
   -2.1122    1.0247   -0.3704 C   0  0  0  0  0  0
    4.2202   -0.6949   -9.3826 C   0  0  0  0  0  0
    3.4844   -0.3873   -5.8584 C   0  0  0  0  0  0
   -0.7544    5.8674   -0.6358 N   0  3  0  0  0  0
    2.7060   -1.9324   -0.8875 O   0  0  0  0  0  0
   -2.2020    3.3494   -0.9414 C   0  0  0  0  0  0
   -2.8666    2.1458   -0.7344 C   0  0  0  0  0  0
    4.1648   -1.0242   -4.8153 C   0  0  0  0  0  0
    2.3149    0.3313   -5.5913 C   0  0  0  0  0  0
    2.5106   -0.2155   -3.2447 C   0  0  0  0  0  0
    1.0349    4.7650   -1.6225 N   0  0  0  0  0  0
    1.8378    0.4246   -4.2870 C   0  0  0  0  0  0
    3.6855   -0.9340   -3.5116 C   0  0  0  0  0  0
    1.8668   -0.7814   -8.6532 C   0  0  0  0  0  0
    1.6660   -1.2729    1.6452 C   0  0  0  0  0  0
    3.8361   -0.8357  -10.7241 C   0  0  0  0  0  0
    1.1696   -0.6770    2.9734 C   0  0  0  0  0  0
    1.5186   -0.9216   -9.9986 C   0  0  0  0  0  0
    2.4761   -0.9466  -11.0116 C   0  0  0  0  0  0
    6.0594   -0.3499   -6.8353 H   0  0  0  0  0  0
   -0.9611   -2.1742    0.5297 H   0  0  0  0  0  0
    1.8452    0.5783    0.6389 H   0  0  0  0  0  0
    0.9970    2.4329   -0.3169 H   0  0  0  0  0  0
    1.3342    0.7245   -1.8629 H   0  0  0  0  0  0
   -1.6552    5.8183   -0.1822 H   0  0  0  0  0  0
   -2.7819    4.2136   -1.2300 H   0  0  0  0  0  0
   -3.9385    2.0821   -0.8558 H   0  0  0  0  0  0
    5.0638   -1.5923   -5.0058 H   0  0  0  0  0  0
    1.7807    0.8367   -6.3822 H   0  0  0  0  0  0
    1.5053    5.6435   -1.7850 H   0  0  0  0  0  0
    1.4618    3.8973   -1.9120 H   0  0  0  0  0  0
    0.9378    0.9914   -4.0948 H   0  0  0  0  0  0
    4.2459   -1.4168   -2.7259 H   0  0  0  0  0  0
    1.1071   -0.7767   -7.8862 H   0  0  0  0  0  0
    1.2313   -2.2647    1.5110 H   0  0  0  0  0  0
    2.7415   -1.4344    1.7403 H   0  0  0  0  0  0
    4.5701   -0.8606  -11.5162 H   0  0  0  0  0  0
    1.4297   -1.3257    3.8102 H   0  0  0  0  0  0
    0.0864   -0.5539    2.9798 H   0  0  0  0  0  0
    1.6186    0.2989    3.1614 H   0  0  0  0  0  0
    0.4755   -1.0170  -10.2631 H   0  0  0  0  0  0
    2.1579   -1.0577  -12.0380 H   0  0  0  0  0  0
   -0.3081    6.7604   -0.7864 H   0  0  0  0  0  0
  1  3  1  0  0  0
  1  9  1  0  0  0
  1 17  1  0  0  0
  2 10  1  0  0  0
  2  4  1  0  0  0
  2  6  2  0  0  0
  3  5  2  0  0  0
  3 34  1  0  0  0
  4 11  2  0  0  0
  4 15  1  0  0  0
  5 16  1  0  0  0
  6  8  1  0  0  0
  6 35  1  0  0  0
  7 14  1  0  0  0
  7 10  1  0  0  0
  7 19  2  0  0  0
  8 15  1  0  0  0
  9 16  2  0  0  0
  9 28  1  0  0  0
 10 29  1  0  0  0
 10 36  1  0  0  0
 11 13  1  0  0  0
 11 37  1  0  0  0
 12 13  1  0  0  0
 12 18  2  0  0  0
 12 25  1  0  0  0
 13 20  2  0  0  0
 14 24  1  0  0  0
 14 38  1  0  0  0
 15 21  2  0  0  0
 16 30  1  0  0  0
 17 22  2  0  0  0
 17 23  1  0  0  0
 18 39  1  0  0  0
 18 57  1  0  0  0
 20 21  1  0  0  0
 20 40  1  0  0  0
 21 41  1  0  0  0
 22 27  1  0  0  0
 22 42  1  0  0  0
 23 26  2  0  0  0
 23 43  1  0  0  0
 24 26  1  0  0  0
 24 27  2  0  0  0
 25 44  1  0  0  0
 25 45  1  0  0  0
 26 46  1  0  0  0
 27 47  1  0  0  0
 28 32  2  0  0  0
 28 48  1  0  0  0
 29 31  1  0  0  0
 29 49  1  0  0  0
 29 50  1  0  0  0
 30 33  2  0  0  0
 30 51  1  0  0  0
 31 52  1  0  0  0
 31 53  1  0  0  0
 31 54  1  0  0  0
 32 33  1  0  0  0
 32 55  1  0  0  0
 33 56  1  0  0  0
M  CHG  1  18   1
M  END
> <chembl_id>
CHEMBL361520

> <chembl_pref_name>
None

> <s_m_source_file>
sdf/inactives_sanitized.sdf

> <i_m_source_file_index>
90

> <i_lp_mmshare_version>
49012

> <i_m_ct_stereo_status>
1

> <i_f3d_flags>
0

> <s_epik_input>
W2NIXTFbY0hdW2NIXVtjSF1jKGMxMiluW2NIXW4yLWMzW2NIXVtjSF1jKFtjSF1bY0hdMylbTkhdQyg9TylbQ0BIXShbQ0gyXVtDSDNdKWM0W2NIXXNjKGM0NSlbY0hdW2NIXWMoW2NIXTUpL0MoPU4vW0hdKVtOSDJd

> <s_epik_cmdline>
J2VwaWtfcHl0aG9uJywgJy1waHQnLCAnMC41JywgJy1waCcsICc3LjUnLCAnLW50JywgJy1tYScsICcyMDAnLCAnLWltYWUnLCAnPGluZmlsZS5tYWU+JywgJy1vbWFlJywgJzxvdXRmaWxlLm1hZT4n

> <r_epik_Ionization_Penalty>
  0.0112

> <r_epik_Ionization_Penalty_Charging>
  0.0010

> <r_epik_Ionization_Penalty_Neutral>
  0.0102

> <r_epik_State_Penalty>
  0.0078

> <r_epik_Charging_Adjusted_Penalty>
0.00877873498810205

> <i_epik_Tot_Q>
1

> <i_epik_Tot_abs_Q>
1

> <s_epik_Chemistry_Notes>
This compound has an imine and may undergo hydrolysis.

> <s_lp_Force_Field>
OPLS3e

> <r_lp_Energy>
44.3272

> <b_lp_Chiralities_Consistent>
1

> <s_lp_Variant>
sdf/inactives_sanitized.sdf:90-1

$$$$
sdf/inactives_sanitized.sdf:91
                    3D
 Schrodinger Suite 2020-1.
 57 60  0  0  1  0            999 V2000
    1.4439    5.1451   -1.3390 C   0  0  0  0  0  0
    4.5241   -2.4846    0.9766 F   0  0  0  0  0  0
    2.2283    1.2291   -0.0053 N   0  0  0  0  0  0
   -6.6394   -1.2140    2.5024 S   0  0  0  0  0  0
    1.0845    4.0444   -2.1135 C   0  0  0  0  0  0
    5.3876   -0.7029    1.8186 F   0  0  0  0  0  0
   -7.7944   -1.6129    3.7640 N   0  0  0  0  0  0
    1.3503    2.7551   -1.6571 C   0  0  0  0  0  0
    5.5916   -1.1106   -0.2871 F   0  0  0  0  0  0
    4.5176    3.4507    1.6812 N   0  3  0  0  0  0
   -0.6757    1.3800    0.4163 O   0  0  0  0  0  0
    1.9797    2.5573   -0.4216 C   0  0  0  0  0  0
   -1.4712   -3.5172    0.0314 F   0  0  0  0  0  0
   -6.8123    0.2068    2.1825 O   0  0  0  0  0  0
    2.3455    3.6695    0.3656 C   0  0  0  0  0  0
   -0.7267   -0.8933    0.0685 N   0  0  0  0  0  0
   -5.3396   -1.7401    2.9337 O   0  0  0  0  0  0
    2.0681    4.9578   -0.1065 C   0  0  0  0  0  0
    3.5059    0.8317    0.1278 N   0  0  0  0  0  0
   -2.1013   -1.2059    0.0368 C   0  0  0  0  0  0
   -0.1133    0.2979    0.2480 C   0  0  0  0  0  0
    2.9893    3.5222    1.7400 C   0  0  0  0  0  0
    3.4707   -0.4331    0.4842 C   0  0  0  0  0  0
    4.7577   -1.1917    0.7501 C   0  0  0  0  0  0
    2.1463   -0.8726    0.5807 C   0  0  0  0  0  0
    1.3304    0.2018    0.2383 C   0  0  0  0  0  0
   -3.7738   -2.9644    0.0082 C   0  0  0  0  0  0
   -6.6819   -3.2128   -1.0865 C   0  0  0  0  0  0
   -4.8049   -2.0196    0.0106 C   0  0  0  0  0  0
   -6.2273   -2.4548    0.0014 C   0  0  0  0  0  0
   -4.4682   -0.6621    0.0045 C   0  0  0  0  0  0
   -7.1394   -2.1332    1.0317 C   0  0  0  0  0  0
   -3.1353   -0.2541    0.0203 C   0  0  0  0  0  0
   -8.0101   -3.6226   -1.1752 C   0  0  0  0  0  0
   -8.4767   -2.5363    0.9241 C   0  0  0  0  0  0
   -8.9098   -3.2779   -0.1720 C   0  0  0  0  0  0
   -2.4369   -2.5665    0.0239 C   0  0  0  0  0  0
    1.2340    6.1443   -1.6918 H   0  0  0  0  0  0
    0.5983    4.1901   -3.0671 H   0  0  0  0  0  0
   -8.7458   -1.2767    3.5936 H   0  0  0  0  0  0
   -7.7558   -2.5842    4.0838 H   0  0  0  0  0  0
    1.0650    1.9102   -2.2681 H   0  0  0  0  0  0
    4.8971    3.3454    2.6114 H   0  0  0  0  0  0
    4.8920    4.2952    1.2725 H   0  0  0  0  0  0
   -0.1217   -1.6952   -0.0319 H   0  0  0  0  0  0
    2.3307    5.8230    0.4850 H   0  0  0  0  0  0
    2.7837    4.3754    2.3884 H   0  0  0  0  0  0
    2.6833    2.6123    2.2580 H   0  0  0  0  0  0
    1.8238   -1.8616    0.8743 H   0  0  0  0  0  0
   -4.0102   -4.0189    0.0057 H   0  0  0  0  0  0
   -6.0009   -3.4775   -1.8829 H   0  0  0  0  0  0
   -5.2457    0.0879   -0.0119 H   0  0  0  0  0  0
   -2.9431    0.8062    0.0116 H   0  0  0  0  0  0
   -8.3423   -4.2002   -2.0252 H   0  0  0  0  0  0
   -9.1944   -2.2835    1.6896 H   0  0  0  0  0  0
   -9.9422   -3.5874   -0.2416 H   0  0  0  0  0  0
    4.8046    2.6578    1.1240 H   0  0  0  0  0  0
  1 18  2  0  0  0
  1  5  1  0  0  0
  1 38  1  0  0  0
  2 24  1  0  0  0
  3 12  1  0  0  0
  3 19  1  0  0  0
  3 26  1  0  0  0
  4 32  1  0  0  0
  4 14  2  0  0  0
  4  7  1  0  0  0
  4 17  2  0  0  0
  5  8  2  0  0  0
  5 39  1  0  0  0
  6 24  1  0  0  0
  7 40  1  0  0  0
  7 41  1  0  0  0
  8 12  1  0  0  0
  8 42  1  0  0  0
  9 24  1  0  0  0
 10 22  1  0  0  0
 10 43  1  0  0  0
 10 44  1  0  0  0
 10 57  1  0  0  0
 11 21  2  0  0  0
 12 15  2  0  0  0
 13 37  1  0  0  0
 15 18  1  0  0  0
 15 22  1  0  0  0
 16 21  1  0  0  0
 16 20  1  0  0  0
 16 45  1  0  0  0
 18 46  1  0  0  0
 19 23  2  0  0  0
 20 33  1  0  0  0
 20 37  2  0  0  0
 21 26  1  0  0  0
 22 47  1  0  0  0
 22 48  1  0  0  0
 23 24  1  0  0  0
 23 25  1  0  0  0
 25 26  2  0  0  0
 25 49  1  0  0  0
 27 29  2  0  0  0
 27 37  1  0  0  0
 27 50  1  0  0  0
 28 30  2  0  0  0
 28 34  1  0  0  0
 28 51  1  0  0  0
 29 31  1  0  0  0
 29 30  1  0  0  0
 30 32  1  0  0  0
 31 33  2  0  0  0
 31 52  1  0  0  0
 32 35  2  0  0  0
 33 53  1  0  0  0
 34 36  2  0  0  0
 34 54  1  0  0  0
 35 36  1  0  0  0
 35 55  1  0  0  0
 36 56  1  0  0  0
M  CHG  1  10   1
M  END
> <chembl_id>
CHEMBL151939

> <chembl_pref_name>
None

> <s_m_source_file>
sdf/inactives_sanitized.sdf

> <i_m_source_file_index>
91

> <i_lp_mmshare_version>
49012

> <i_m_ct_stereo_status>
1

> <i_f3d_flags>
0

> <s_epik_input>
W05IMl1bQ0gyXWMxW2NIXVtjSF1bY0hdW2NIXWMxLW4ybmMoQyhGKShGKUYpW2NIXWMyQyg9TylbTkhdYzNbY0hdW2NIXWMoW2NIXWMzRiktYzRbY0hdW2NIXVtjSF1bY0hdYzRTKD1PKSg9TylbTkgyXQ==

> <s_epik_cmdline>
J2VwaWtfcHl0aG9uJywgJy1waHQnLCAnMC41JywgJy1waCcsICc3LjUnLCAnLW50JywgJy1tYScsICcyMDAnLCAnLWltYWUnLCAnPGluZmlsZS5tYWU+JywgJy1vbWFlJywgJzxvdXRmaWxlLm1hZT4n

> <r_lp_tautomer_probability>
1

> <r_epik_Ionization_Penalty>
  0.1131

> <r_epik_Ionization_Penalty_Charging>
  0.1108

> <r_epik_Ionization_Penalty_Neutral>
  0.0023

> <r_epik_State_Penalty>
  0.1006

> <r_epik_Charging_Adjusted_Penalty>
0.211414600839433

> <i_epik_Tot_Q>
1

> <i_epik_Tot_abs_Q>
1

> <s_lp_Force_Field>
OPLS3e

> <r_lp_Energy>
49.918698

> <b_lp_Chiralities_Consistent>
1

> <s_lp_Variant>
sdf/inactives_sanitized.sdf:91-1

$$$$
sdf/inactives_sanitized.sdf:92
                    3D
 Schrodinger Suite 2020-1.
 32 35  0  0  1  0            999 V2000
   -4.4539    0.8379   -0.4049 N   0  0  0  0  0  0
   -4.4468   -0.4325    0.0778 C   0  0  0  0  0  0
   -3.2866   -1.1368    0.4126 C   0  0  0  0  0  0
   -3.2756    1.4908   -0.5843 C   0  0  0  0  0  0
   -2.0720    0.8537   -0.2730 C   0  0  0  0  0  0
   -2.0646   -0.4692    0.2296 C   0  0  0  0  0  0
   -0.7843   -0.8963    0.4653 N   0  0  0  0  0  0
   -0.0167    0.1143    0.1221 C   0  0  0  0  0  0
   -0.7428    1.1985   -0.3281 N   0  0  0  0  0  0
    1.4520    0.1106    0.2035 C   0  0  0  0  0  0
    2.2980   -0.9510    0.5930 C   0  0  0  0  0  0
    3.5992   -0.4580    0.5103 C   0  0  0  0  0  0
    3.4236    0.8319    0.0814 N   0  0  0  0  0  0
    2.1513    1.1813   -0.1070 N   0  0  0  0  0  0
    1.9191   -2.2068    0.9916 O   0  0  0  0  0  0
    4.9397   -1.0646    0.7754 C   0  0  0  0  0  0
    6.0253   -0.2544    1.1305 C   0  0  0  0  0  0
    7.2739   -0.8208    1.3736 C   0  0  0  0  0  0
    7.4399   -2.1988    1.2614 C   0  0  0  0  0  0
    6.3679   -3.0148    0.9083 C   0  0  0  0  0  0
    5.1194   -2.4479    0.6656 C   0  0  0  0  0  0
   -5.4146   -0.8970    0.1974 H   0  0  0  0  0  0
   -3.3306   -2.1466    0.7932 H   0  0  0  0  0  0
   -3.3165    2.4986   -0.9701 H   0  0  0  0  0  0
    4.1800    1.4785   -0.0900 H   0  0  0  0  0  0
    1.6765   -2.2142    1.9204 H   0  0  0  0  0  0
    5.9071    0.8153    1.2235 H   0  0  0  0  0  0
    8.1099   -0.1944    1.6479 H   0  0  0  0  0  0
    8.4087   -2.6381    1.4489 H   0  0  0  0  0  0
    6.5043   -4.0827    0.8212 H   0  0  0  0  0  0
    4.2987   -3.0910    0.3842 H   0  0  0  0  0  0
   -0.3198    2.0633   -0.6335 H   0  0  0  0  0  0
  1  2  2  0  0  0
  1  4  1  0  0  0
  2  3  1  0  0  0
  2 22  1  0  0  0
  3  6  2  0  0  0
  3 23  1  0  0  0
  4  5  2  0  0  0
  4 24  1  0  0  0
  5  6  1  0  0  0
  5  9  1  0  0  0
  6  7  1  0  0  0
  7  8  2  0  0  0
  8 10  1  0  0  0
  8  9  1  0  0  0
  9 32  1  0  0  0
 10 11  1  0  0  0
 10 14  2  0  0  0
 11 12  2  0  0  0
 11 15  1  0  0  0
 12 13  1  0  0  0
 12 16  1  0  0  0
 13 14  1  0  0  0
 13 25  1  0  0  0
 15 26  1  0  0  0
 16 17  2  0  0  0
 16 21  1  0  0  0
 17 18  1  0  0  0
 17 27  1  0  0  0
 18 19  2  0  0  0
 18 28  1  0  0  0
 19 20  1  0  0  0
 19 29  1  0  0  0
 20 21  2  0  0  0
 20 30  1  0  0  0
 21 31  1  0  0  0
M  END
> <chembl_id>
CHEMBL379243

> <chembl_pref_name>
None

> <s_m_source_file>
sdf/inactives_sanitized.sdf

> <i_m_source_file_index>
92

> <i_lp_mmshare_version>
49012

> <i_m_ct_stereo_status>
1

> <i_f3d_flags>
0

> <s_epik_input>
W2NIXTFbbkhdW2NIXVtjSF1jKGMxMiluYyhuMiktYzNjKFtPSF0pYyhbbkhdbjMpLWM0W2NIXVtjSF1bY0hdW2NIXVtjSF00

> <s_epik_cmdline>
J2VwaWtfcHl0aG9uJywgJy1waHQnLCAnMC41JywgJy1waCcsICc3LjUnLCAnLW50JywgJy1tYScsICcyMDAnLCAnLWltYWUnLCAnPGluZmlsZS5tYWU+JywgJy1vbWFlJywgJzxvdXRmaWxlLm1hZT4n

> <r_lp_tautomer_probability>
1

> <r_epik_Ionization_Penalty>
  0.3040

> <r_epik_Ionization_Penalty_Charging>
  0.0092

> <r_epik_Ionization_Penalty_Neutral>
  0.2948

> <r_epik_State_Penalty>
 -0.0000

> <r_epik_Charging_Adjusted_Penalty>
0.00921393649897373

> <i_epik_Tot_Q>
0

> <i_epik_Tot_abs_Q>
0

> <s_lp_Force_Field>
OPLS3e

> <r_lp_Energy>
18.977173

> <b_lp_Chiralities_Consistent>
1

> <s_lp_Variant>
sdf/inactives_sanitized.sdf:92-1

$$$$
sdf/inactives_sanitized.sdf:93
                    3D
 Schrodinger Suite 2020-1.
 39 41  0  0  1  0            999 V2000
   -0.0903    0.0018   -0.1224 C   0  0  0  0  0  0
   -0.7943   -1.1788   -0.3770 C   0  0  0  0  0  0
   -2.1836   -1.2077   -0.4511 C   0  0  0  0  0  0
   -0.7988    1.1964    0.0640 C   0  0  0  0  0  0
   -2.2028    1.2122    0.0003 C   0  0  0  0  0  0
   -2.8820   -0.0095   -0.2605 C   0  0  0  0  0  0
   -4.6218    0.2184   -0.3024 S   0  0  0  0  0  0
   -4.4428    1.9356    0.0388 C   0  0  0  0  0  0
   -3.1085    2.2974    0.1615 C   0  0  0  0  0  0
   -5.5466    2.7628    0.1358 C   0  0  0  0  0  0
   -6.6678    2.2897    0.6649 N   0  0  0  0  0  0
   -5.4461    4.0124   -0.2991 N   0  3  0  0  0  0
    1.3985   -0.0096   -0.0482 C   0  0  0  0  0  0
    2.0742   -1.0224    0.6393 C   0  0  0  0  0  0
    4.2220   -0.0238    0.0965 C   0  0  0  0  0  0
    3.5622    0.9985   -0.6004 C   0  0  0  0  0  0
    3.4644   -1.0321    0.7134 C   0  0  0  0  0  0
    2.1574    0.9935   -0.6634 C   0  0  0  0  0  0
    4.3536    1.9667   -1.1940 O   0  0  0  0  0  0
    3.7416    3.0263   -1.9214 C   0  0  0  0  0  0
    5.6048    0.0268    0.1322 O   0  0  0  0  0  0
    6.3254   -0.9812    0.8329 C   0  0  0  0  0  0
   -0.2538   -2.1020   -0.5292 H   0  0  0  0  0  0
   -2.7041   -2.1332   -0.6511 H   0  0  0  0  0  0
   -0.2622    2.1118    0.2678 H   0  0  0  0  0  0
   -2.7843    3.3069    0.3668 H   0  0  0  0  0  0
   -7.4801    2.8841    0.7407 H   0  0  0  0  0  0
   -6.7030    1.3340    0.9886 H   0  0  0  0  0  0
   -4.5788    4.3344   -0.7028 H   0  0  0  0  0  0
    1.5215   -1.8103    1.1305 H   0  0  0  0  0  0
    3.9369   -1.8352    1.2581 H   0  0  0  0  0  0
    1.6357    1.7711   -1.2005 H   0  0  0  0  0  0
    4.5151    3.6881   -2.3110 H   0  0  0  0  0  0
    3.0869    3.6240   -1.2853 H   0  0  0  0  0  0
    3.1710    2.6500   -2.7717 H   0  0  0  0  0  0
    7.3935   -0.7769    0.7591 H   0  0  0  0  0  0
    6.1485   -1.9694    0.4061 H   0  0  0  0  0  0
    6.0656   -0.9958    1.8924 H   0  0  0  0  0  0
   -6.2408    4.6318   -0.2367 H   0  0  0  0  0  0
  1 13  1  0  0  0
  1  2  1  0  0  0
  1  4  2  0  0  0
  2  3  2  0  0  0
  2 23  1  0  0  0
  3  6  1  0  0  0
  3 24  1  0  0  0
  4  5  1  0  0  0
  4 25  1  0  0  0
  5  6  2  0  0  0
  5  9  1  0  0  0
  6  7  1  0  0  0
  7  8  1  0  0  0
  8  9  2  0  0  0
  8 10  1  0  0  0
  9 26  1  0  0  0
 10 11  1  0  0  0
 10 12  2  0  0  0
 11 27  1  0  0  0
 11 28  1  0  0  0
 12 29  1  0  0  0
 12 39  1  0  0  0
 13 14  2  0  0  0
 13 18  1  0  0  0
 14 17  1  0  0  0
 14 30  1  0  0  0
 15 16  1  0  0  0
 15 17  2  0  0  0
 15 21  1  0  0  0
 16 18  2  0  0  0
 16 19  1  0  0  0
 17 31  1  0  0  0
 18 32  1  0  0  0
 19 20  1  0  0  0
 20 33  1  0  0  0
 20 34  1  0  0  0
 20 35  1  0  0  0
 21 22  1  0  0  0
 22 36  1  0  0  0
 22 37  1  0  0  0
 22 38  1  0  0  0
M  CHG  1  12   1
M  END
> <chembl_id>
CHEMBL598384

> <chembl_pref_name>
None

> <s_m_source_file>
sdf/inactives_sanitized.sdf

> <i_m_source_file_index>
93

> <i_lp_mmshare_version>
49012

> <i_m_ct_stereo_status>
1

> <i_f3d_flags>
0

> <s_epik_input>
W0NIM11PYyhbY0hdMSljKE9bQ0gzXSlbY0hdW2NIXWMxLWMoW2NIXTIpW2NIXVtjSF1jKGMyMylzYyhbY0hdMykvQyhbTkgyXSk9TlxbSF0=

> <s_epik_cmdline>
J2VwaWtfcHl0aG9uJywgJy1waHQnLCAnMC41JywgJy1waCcsICc3LjUnLCAnLW50JywgJy1tYScsICcyMDAnLCAnLWltYWUnLCAnPGluZmlsZS5tYWU+JywgJy1vbWFlJywgJzxvdXRmaWxlLm1hZT4n

> <r_lp_tautomer_probability>
1

> <r_epik_Ionization_Penalty>
  0.0095

> <r_epik_Ionization_Penalty_Charging>
  0.0095

> <r_epik_Ionization_Penalty_Neutral>
  0.0000

> <r_epik_State_Penalty>
 -0.0000

> <r_epik_Charging_Adjusted_Penalty>
0.00945881282357717

> <i_epik_Tot_Q>
1

> <i_epik_Tot_abs_Q>
1

> <s_epik_Chemistry_Notes>
This compound has an imine and may undergo hydrolysis.

> <s_lp_Force_Field>
OPLS3e

> <r_lp_Energy>
25.638753

> <b_lp_Chiralities_Consistent>
1

> <s_lp_Variant>
sdf/inactives_sanitized.sdf:93-1

$$$$
sdf/inactives_sanitized.sdf:94
                    3D
 Schrodinger Suite 2020-1.
 65 68  0  0  1  0            999 V2000
   -0.8743   -0.8229   -1.5959 C   0  0  0  0  0  0
   -2.1289   -0.3904   -2.1475 C   0  0  0  0  0  0
   -0.3837   -1.9059   -2.3091 C   0  0  0  0  0  0
   -0.2303   -0.1769   -0.3617 C   0  0  2  0  0  0
   -1.3600   -2.4178   -3.6541 S   0  0  0  0  0  0
    5.2497    1.7916   -2.2620 C   0  0  2  0  0  0
   -2.9893    0.6460   -1.7331 C   0  0  0  0  0  0
    1.2978   -0.0146   -0.5339 C   0  0  0  0  0  0
    6.1588    1.1100   -1.2045 C   0  0  0  0  0  0
   -5.0864    1.9652   -1.9407 C   0  0  0  0  0  0
   -4.1961    0.8993   -2.3997 C   0  0  0  0  0  0
   -2.5266   -1.1668   -3.2775 C   0  0  0  0  0  0
    1.7181    1.1691   -1.0270 N   0  0  0  0  0  0
    3.0806    1.5091   -1.0032 N   0  0  2  0  0  0
   -5.7437    2.6910   -2.8379 N   0  3  0  0  0  0
    3.7649    1.3015   -2.2853 C   0  0  2  0  0  0
   -0.5893   -0.9540    0.9354 C   0  0  0  0  0  0
    2.0541   -0.9452   -0.2390 O   0  0  0  0  0  0
    5.7605    0.1931   -0.4812 O   0  0  0  0  0  0
   -4.5378    0.1147   -3.5049 C   0  0  0  0  0  0
   -3.7225   -0.9156   -3.9598 C   0  0  0  0  0  0
   -5.2160    2.1779   -0.6361 N   0  0  0  0  0  0
    7.4001    1.6447   -1.1712 O   0  0  0  0  0  0
   -2.0784   -0.9422    1.2646 C   0  0  0  0  0  0
    5.8723    1.7246   -3.6815 C   0  0  0  0  0  0
    3.6582   -0.1160   -2.9289 C   0  0  0  0  0  0
    8.3787    1.1454   -0.2712 C   0  0  0  0  0  0
   -2.6396    0.1633    1.9101 C   0  0  0  0  0  0
   -2.8837   -2.0271    0.9061 C   0  0  0  0  0  0
    5.7962    0.3120   -4.2921 C   0  0  0  0  0  0
    4.3450   -0.2051   -4.3093 C   0  0  0  0  0  0
   -4.2474   -2.0029    1.1854 C   0  0  0  0  0  0
   -4.0032    0.1862    2.1907 C   0  0  0  0  0  0
   -4.8010   -0.8963    1.8258 C   0  0  0  0  0  0
    0.5331   -2.4407   -2.1058 H   0  0  0  0  0  0
   -0.6190    0.8355   -0.2399 H   0  0  0  0  0  0
    5.2268    2.8422   -1.9698 H   0  0  0  0  0  0
   -2.7271    1.2560   -0.8827 H   0  0  0  0  0  0
    1.1073    1.9722   -1.0672 H   0  0  0  0  0  0
    3.5131    0.9857   -0.2541 H   0  0  0  0  0  0
   -5.6219    2.5021   -3.8224 H   0  0  0  0  0  0
    3.2646    1.9783   -2.9808 H   0  0  0  0  0  0
   -0.2386   -1.9867    0.8770 H   0  0  0  0  0  0
   -0.0581   -0.5293    1.7899 H   0  0  0  0  0  0
   -5.4688    0.2994   -4.0205 H   0  0  0  0  0  0
   -4.0140   -1.5112   -4.8131 H   0  0  0  0  0  0
   -5.8246    2.9112   -0.3027 H   0  0  0  0  0  0
   -4.7085    1.5988    0.0174 H   0  0  0  0  0  0
    5.3112    2.4007   -4.3289 H   0  0  0  0  0  0
    6.8865    2.1266   -3.7005 H   0  0  0  0  0  0
    4.1007   -0.8616   -2.2675 H   0  0  0  0  0  0
    2.6139   -0.4002   -3.0597 H   0  0  0  0  0  0
    9.3119    1.6944   -0.3975 H   0  0  0  0  0  0
    8.5787    0.0892   -0.4579 H   0  0  0  0  0  0
    8.0547    1.2594    0.7645 H   0  0  0  0  0  0
   -2.0220    1.0051    2.1886 H   0  0  0  0  0  0
   -2.4563   -2.8830    0.4040 H   0  0  0  0  0  0
    6.1995    0.3220   -5.3053 H   0  0  0  0  0  0
    6.4249   -0.3738   -3.7223 H   0  0  0  0  0  0
    4.3247   -1.2355   -4.6662 H   0  0  0  0  0  0
    3.7689    0.3748   -5.0321 H   0  0  0  0  0  0
   -4.8730   -2.8383    0.9073 H   0  0  0  0  0  0
   -4.4403    1.0390    2.6890 H   0  0  0  0  0  0
   -5.8588   -0.8790    2.0440 H   0  0  0  0  0  0
   -6.3612    3.4296   -2.5342 H   0  0  0  0  0  0
  1  2  1  0  0  0
  1  3  2  0  0  0
  1  4  1  0  0  0
  2  7  2  0  0  0
  2 12  1  0  0  0
  3  5  1  0  0  0
  3 35  1  0  0  0
  4  8  1  0  0  0
  4 17  1  0  0  0
  4 36  1  0  0  0
  5 12  1  0  0  0
  6 16  1  0  0  0
  6  9  1  0  0  0
  6 25  1  0  0  0
  6 37  1  0  0  0
  7 11  1  0  0  0
  7 38  1  0  0  0
  8 13  1  0  0  0
  8 18  2  0  0  0
  9 19  2  0  0  0
  9 23  1  0  0  0
 10 11  1  0  0  0
 10 15  2  0  0  0
 10 22  1  0  0  0
 11 20  2  0  0  0
 12 21  2  0  0  0
 13 14  1  0  0  0
 13 39  1  0  0  0
 14 16  1  0  0  0
 14 40  1  0  0  0
 15 41  1  0  0  0
 15 65  1  0  0  0
 16 26  1  0  0  0
 16 42  1  0  0  0
 17 24  1  0  0  0
 17 43  1  0  0  0
 17 44  1  0  0  0
 20 21  1  0  0  0
 20 45  1  0  0  0
 21 46  1  0  0  0
 22 47  1  0  0  0
 22 48  1  0  0  0
 23 27  1  0  0  0
 24 28  2  0  0  0
 24 29  1  0  0  0
 25 30  1  0  0  0
 25 49  1  0  0  0
 25 50  1  0  0  0
 26 31  1  0  0  0
 26 51  1  0  0  0
 26 52  1  0  0  0
 27 53  1  0  0  0
 27 54  1  0  0  0
 27 55  1  0  0  0
 28 33  1  0  0  0
 28 56  1  0  0  0
 29 32  2  0  0  0
 29 57  1  0  0  0
 30 31  1  0  0  0
 30 58  1  0  0  0
 30 59  1  0  0  0
 31 60  1  0  0  0
 31 61  1  0  0  0
 32 34  1  0  0  0
 32 62  1  0  0  0
 33 34  2  0  0  0
 33 63  1  0  0  0
 34 64  1  0  0  0
M  CHG  1  15   1
M  END
> <chembl_id>
CHEMBL181667

> <chembl_pref_name>
None

> <i_m_ct_stereo_status>
1

> <s_m_source_file>
sdf/inactives_sanitized.sdf

> <i_m_source_file_index>
94

> <i_lp_mmshare_version>
49012

> <i_f3d_flags>
0

> <s_epik_input>
W0hdXE49QyhbTkgyXSlcYyhbY0hdMSlbY0hdW2NIXWMoYzEyKXNbY0hdYzJbQ0BASF0oW0NIMl1jM1tjSF1bY0hdW2NIXVtjSF1bY0hdMylDKD1PKVtOSF1bTkhdW0NAQEhdKFtDQEhdNEMoPU8pT1tDSDNdKVtDSDJdW0NIMl1bQ0gyXVtDSDJdNA==

> <s_epik_cmdline>
J2VwaWtfcHl0aG9uJywgJy1waHQnLCAnMC41JywgJy1waCcsICc3LjUnLCAnLW50JywgJy1tYScsICcyMDAnLCAnLWltYWUnLCAnPGluZmlsZS5tYWU+JywgJy1vbWFlJywgJzxvdXRmaWxlLm1hZT4n

> <r_lp_tautomer_probability>
1

> <r_epik_Ionization_Penalty>
  0.0010

> <r_epik_Ionization_Penalty_Charging>
  0.0010

> <r_epik_Ionization_Penalty_Neutral>
  0.0000

> <r_epik_State_Penalty>
 -0.0000

> <r_epik_Charging_Adjusted_Penalty>
0.000984797499885888

> <i_epik_Tot_Q>
1

> <i_epik_Tot_abs_Q>
1

> <s_epik_Chemistry_Notes>
This compound has an ester and may undergo hydrolysis at high or low pH. This compound has an imine and may undergo hydrolysis.

> <s_lp_Force_Field>
OPLS3e

> <r_lp_Energy>
39.591704

> <b_lp_Chiralities_Consistent>
1

> <s_lp_Variant>
sdf/inactives_sanitized.sdf:94-1

$$$$
sdf/inactives_sanitized.sdf:95
                    3D
 Schrodinger Suite 2020-1.
 68 71  0  0  1  0            999 V2000
    2.1287   -0.0352   -1.3999 C   0  0  0  0  0  0
    2.8969    1.0724   -1.8963 C   0  0  0  0  0  0
   -0.0687    0.0840   -0.1633 C   0  0  0  0  0  0
    1.4630   -0.0516   -0.0248 C   0  0  1  0  0  0
    2.0919   -1.0580   -2.3320 C   0  0  0  0  0  0
   -2.2849    3.1461    0.4215 C   0  0  1  0  0  0
    2.9426   -0.7400   -3.8159 S   0  0  0  0  0  0
   -0.5621    1.3330   -0.0867 N   0  0  0  0  0  0
   -1.6770    3.3186    1.8349 C   0  0  0  0  0  0
    3.2034    2.3070   -1.2886 C   0  0  0  0  0  0
   -1.9817    1.7130   -0.1283 C   0  0  2  0  0  0
    4.3018    4.5391   -1.2932 C   0  0  0  0  0  0
    3.9846    3.2677   -1.9462 C   0  0  0  0  0  0
    3.4074    0.8365   -3.2082 C   0  0  0  0  0  0
   -0.7472    4.2795    1.9765 N   0  0  0  0  0  0
    1.2933    3.5539    3.1854 C   0  0  0  0  0  0
    5.4897    5.0957   -1.5027 N   0  3  0  0  0  0
    1.8987   -1.2927    0.8031 C   0  0  0  0  0  0
   -0.7729   -0.9133   -0.3317 O   0  0  0  0  0  0
   -2.0190    2.5770    2.7582 O   0  0  0  0  0  0
    4.4571    2.9904   -3.2325 C   0  0  0  0  0  0
    1.7078    3.0081    2.1617 O   0  0  0  0  0  0
    4.1825    1.7899   -3.8786 C   0  0  0  0  0  0
    0.0582    4.4765    3.1831 C   0  0  0  0  0  0
    3.3957    5.1026   -0.5018 N   0  0  0  0  0  0
    1.9199    3.4059    4.3547 N   0  0  0  0  0  0
    1.4517   -1.2425    2.2619 C   0  0  0  0  0  0
   -3.8162    3.3723    0.5168 C   0  0  0  0  0  0
   -2.6636    1.4958   -1.5049 C   0  0  0  0  0  0
    0.3898   -2.0391    2.6992 C   0  0  0  0  0  0
    2.0967   -0.3828    3.1558 C   0  0  0  0  0  0
   -4.4504    3.2306   -0.8804 C   0  0  0  0  0  0
   -4.1662    1.8468   -1.4937 C   0  0  0  0  0  0
   -0.0280   -1.9729    4.0257 C   0  0  0  0  0  0
    1.6780   -0.3162    4.4817 C   0  0  0  0  0  0
    0.6173   -1.1114    4.9105 C   0  0  0  0  0  0
    1.8092    0.8105    0.5444 H   0  0  0  0  0  0
    1.5835   -2.0045   -2.2178 H   0  0  0  0  0  0
   -1.8295    3.9034   -0.2207 H   0  0  0  0  0  0
    0.0933    2.0948    0.0054 H   0  0  0  0  0  0
    2.8464    2.5237   -0.2943 H   0  0  0  0  0  0
   -2.4729    1.0117    0.5533 H   0  0  0  0  0  0
   -0.5205    4.8620    1.1839 H   0  0  0  0  0  0
    6.1592    4.6363   -2.1032 H   0  0  0  0  0  0
    1.5441   -2.2168    0.3419 H   0  0  0  0  0  0
    2.9872   -1.3734    0.7987 H   0  0  0  0  0  0
    5.0519    3.7280   -3.7510 H   0  0  0  0  0  0
    4.5613    1.6021   -4.8731 H   0  0  0  0  0  0
   -0.5462    4.3092    4.0769 H   0  0  0  0  0  0
    0.3916    5.5141    3.2136 H   0  0  0  0  0  0
    3.6029    5.9761   -0.0402 H   0  0  0  0  0  0
    2.5054    4.6479   -0.3593 H   0  0  0  0  0  0
    1.5733    3.8675    5.1831 H   0  0  0  0  0  0
    2.7409    2.8219    4.4186 H   0  0  0  0  0  0
   -4.2992    2.6248    1.1502 H   0  0  0  0  0  0
   -4.0478    4.3845    0.8536 H   0  0  0  0  0  0
   -2.1662    2.1185   -2.2502 H   0  0  0  0  0  0
   -2.5450    0.4634   -1.8360 H   0  0  0  0  0  0
   -0.1170   -2.7012    2.0121 H   0  0  0  0  0  0
    2.9143    0.2395    2.8219 H   0  0  0  0  0  0
   -5.5277    3.3898   -0.8169 H   0  0  0  0  0  0
   -4.0674    4.0100   -1.5411 H   0  0  0  0  0  0
   -4.5665    1.7995   -2.5072 H   0  0  0  0  0  0
   -4.7031    1.0876   -0.9226 H   0  0  0  0  0  0
   -0.8510   -2.5842    4.3658 H   0  0  0  0  0  0
    2.1711    0.3509    5.1729 H   0  0  0  0  0  0
    0.2910   -1.0587    5.9386 H   0  0  0  0  0  0
    5.7230    5.9705   -1.0562 H   0  0  0  0  0  0
  1  2  1  0  0  0
  1  4  1  0  0  0
  1  5  2  0  0  0
  2 10  2  0  0  0
  2 14  1  0  0  0
  3  4  1  0  0  0
  3  8  1  0  0  0
  3 19  2  0  0  0
  4 18  1  0  0  0
  4 37  1  0  0  0
  5  7  1  0  0  0
  5 38  1  0  0  0
  6 11  1  0  0  0
  6  9  1  0  0  0
  6 28  1  0  0  0
  6 39  1  0  0  0
  7 14  1  0  0  0
  8 11  1  0  0  0
  8 40  1  0  0  0
  9 15  1  0  0  0
  9 20  2  0  0  0
 10 13  1  0  0  0
 10 41  1  0  0  0
 11 29  1  0  0  0
 11 42  1  0  0  0
 12 13  1  0  0  0
 12 17  2  0  0  0
 12 25  1  0  0  0
 13 21  2  0  0  0
 14 23  2  0  0  0
 15 24  1  0  0  0
 15 43  1  0  0  0
 16 24  1  0  0  0
 16 22  2  0  0  0
 16 26  1  0  0  0
 17 44  1  0  0  0
 17 68  1  0  0  0
 18 27  1  0  0  0
 18 45  1  0  0  0
 18 46  1  0  0  0
 21 23  1  0  0  0
 21 47  1  0  0  0
 23 48  1  0  0  0
 24 49  1  0  0  0
 24 50  1  0  0  0
 25 51  1  0  0  0
 25 52  1  0  0  0
 26 53  1  0  0  0
 26 54  1  0  0  0
 27 30  2  0  0  0
 27 31  1  0  0  0
 28 32  1  0  0  0
 28 55  1  0  0  0
 28 56  1  0  0  0
 29 33  1  0  0  0
 29 57  1  0  0  0
 29 58  1  0  0  0
 30 34  1  0  0  0
 30 59  1  0  0  0
 31 35  2  0  0  0
 31 60  1  0  0  0
 32 33  1  0  0  0
 32 61  1  0  0  0
 32 62  1  0  0  0
 33 63  1  0  0  0
 33 64  1  0  0  0
 34 36  2  0  0  0
 34 65  1  0  0  0
 35 36  1  0  0  0
 35 66  1  0  0  0
 36 67  1  0  0  0
M  CHG  1  17   1
M  END
> <chembl_id>
CHEMBL369777

> <chembl_pref_name>
None

> <i_m_ct_stereo_status>
1

> <s_m_source_file>
sdf/inactives_sanitized.sdf

> <i_m_source_file_index>
95

> <i_lp_mmshare_version>
49012

> <i_f3d_flags>
0

> <s_epik_input>
W0hdXE49QyhbTkgyXSlcYyhbY0hdMSlbY0hdW2NIXWMoYzEyKXNbY0hdYzJbQ0BIXShbQ0gyXWMzW2NIXVtjSF1bY0hdW2NIXVtjSF0zKUMoPU8pW05IXVtDQEhdKFtDSDJdW0NIMl1bQ0gyXVtDSDJdNClbQ0BASF00Qyg9TylbTkhdW0NIMl1DKD1PKVtOSDJd

> <s_epik_cmdline>
J2VwaWtfcHl0aG9uJywgJy1waHQnLCAnMC41JywgJy1waCcsICc3LjUnLCAnLW50JywgJy1tYScsICcyMDAnLCAnLWltYWUnLCAnPGluZmlsZS5tYWU+JywgJy1vbWFlJywgJzxvdXRmaWxlLm1hZT4n

> <r_lp_tautomer_probability>
1

> <r_epik_Ionization_Penalty>
  0.0010

> <r_epik_Ionization_Penalty_Charging>
  0.0010

> <r_epik_Ionization_Penalty_Neutral>
  0.0000

> <r_epik_State_Penalty>
 -0.0000

> <r_epik_Charging_Adjusted_Penalty>
0.000984797499885888

> <i_epik_Tot_Q>
1

> <i_epik_Tot_abs_Q>
1

> <s_epik_Chemistry_Notes>
This compound has an imine and may undergo hydrolysis.

> <s_lp_Force_Field>
OPLS3e

> <r_lp_Energy>
34.944667

> <b_lp_Chiralities_Consistent>
1

> <s_lp_Variant>
sdf/inactives_sanitized.sdf:95-1

$$$$
sdf/inactives_sanitized.sdf:96
                    3D
 Schrodinger Suite 2020-1.
 75 79  0  0  1  0            999 V2000
   -3.6169    7.6348    0.9370 C   0  0  0  0  0  0
   -2.4243    6.9920    1.2786 C   0  0  0  0  0  0
   -1.6704    7.4570    2.3534 C   0  0  0  0  0  0
   -2.0854    8.5561    3.1003 C   0  0  0  0  0  0
   -4.0717    8.7536    1.6758 C   0  0  0  0  0  0
   -3.2952    9.2293    2.7809 C   0  0  0  0  0  0
   -3.7846   10.3598    3.5028 C   0  0  0  0  0  0
   -4.9412   10.9380    3.1341 N   0  3  0  0  0  0
   -5.6934   10.5164    2.1038 C   0  0  0  0  0  0
   -5.2835    9.4191    1.3492 C   0  0  0  0  0  0
   -3.0989   10.9116    4.6083 N   0  0  0  0  0  0
   -1.9568    5.8764    0.5692 N   0  0  0  0  0  0
   -2.5710    5.2006   -0.5633 C   0  0  1  0  0  0
   -1.5540    4.2207   -1.2030 C   0  0  0  0  0  0
   -0.6772    3.5878   -0.3962 N   0  0  0  0  0  0
   -1.6754    3.9561   -2.4000 O   0  0  0  0  0  0
   -3.8542    4.4439   -0.2482 C   0  0  0  0  0  0
   -4.7641    4.1847   -1.2802 C   0  0  0  0  0  0
   -5.9328    3.4699   -1.0330 C   0  0  0  0  0  0
   -6.2132    3.0067    0.2541 C   0  0  0  0  0  0
   -5.3137    3.2605    1.2914 C   0  0  0  0  0  0
   -4.1411    3.9696    1.0414 C   0  0  0  0  0  0
    0.0336    2.3525   -0.7415 C   0  0  0  0  0  0
   -0.6920    1.0844   -0.2575 C   0  0  0  0  0  0
   -0.0448    0.0295    0.4251 C   0  0  0  0  0  0
   -0.8080   -1.0327    0.9291 C   0  0  0  0  0  0
   -2.1917   -1.0635    0.7744 C   0  0  0  0  0  0
   -2.8399   -0.0311    0.0882 C   0  0  0  0  0  0
   -2.0805    1.0052   -0.4462 C   0  0  0  0  0  0
   -4.2282    0.0523   -0.1122 N   0  0  0  0  0  0
   -5.2135   -0.4837    0.6360 C   0  0  0  0  0  0
   -6.6457   -0.1712    0.1814 C   0  0  0  0  0  0
   -5.0403   -1.1612    1.6502 O   0  0  0  0  0  0
   -7.5202    2.2668    0.5277 C   0  0  0  0  0  0
   -7.3764    0.8389    1.1032 C   0  0  0  0  0  0
    1.7410   -0.0318    0.7011 S   0  0  0  0  0  0
    2.0417    1.1948    2.1267 C   0  0  0  0  0  0
    2.0729   -1.3779    1.1836 O   0  0  0  0  0  0
    2.3948    0.4728   -0.5119 O   0  0  0  0  0  0
    3.5530    1.2889    2.3877 C   0  0  0  0  0  0
    1.2562    0.7522    3.3731 C   0  0  0  0  0  0
   -4.2147    7.2864    0.1072 H   0  0  0  0  0  0
   -0.7465    6.9635    2.6205 H   0  0  0  0  0  0
   -1.4812    8.8962    3.9287 H   0  0  0  0  0  0
   -6.5997   11.0756    1.9203 H   0  0  0  0  0  0
   -5.8805    9.0714    0.5181 H   0  0  0  0  0  0
   -2.2266   10.5066    4.9171 H   0  0  0  0  0  0
   -3.4770   11.7130    5.0932 H   0  0  0  0  0  0
   -1.0966    5.4688    0.9053 H   0  0  0  0  0  0
   -2.8002    5.9797   -1.2937 H   0  0  0  0  0  0
   -0.6480    3.8526    0.5774 H   0  0  0  0  0  0
   -4.5621    4.5337   -2.2827 H   0  0  0  0  0  0
   -6.6214    3.2853   -1.8447 H   0  0  0  0  0  0
   -5.5209    2.9108    2.2923 H   0  0  0  0  0  0
   -3.4558    4.1407    1.8581 H   0  0  0  0  0  0
    0.1813    2.2605   -1.8194 H   0  0  0  0  0  0
    1.0215    2.4565   -0.3058 H   0  0  0  0  0  0
   -0.3371   -1.8469    1.4592 H   0  0  0  0  0  0
   -2.7369   -1.9017    1.1802 H   0  0  0  0  0  0
   -2.5981    1.7842   -0.9839 H   0  0  0  0  0  0
   -4.5129    0.6933   -0.8383 H   0  0  0  0  0  0
   -6.6661    0.1626   -0.8579 H   0  0  0  0  0  0
   -7.1849   -1.1200    0.1911 H   0  0  0  0  0  0
   -8.1011    2.8742    1.2233 H   0  0  0  0  0  0
   -8.1187    2.2234   -0.3839 H   0  0  0  0  0  0
   -6.9209    0.8853    2.0947 H   0  0  0  0  0  0
   -8.3839    0.4607    1.2834 H   0  0  0  0  0  0
    1.6728    2.1663    1.8018 H   0  0  0  0  0  0
    3.7740    2.0014    3.1829 H   0  0  0  0  0  0
    4.0852    1.6193    1.4952 H   0  0  0  0  0  0
    3.9670    0.3223    2.6779 H   0  0  0  0  0  0
    1.4252    1.4340    4.2072 H   0  0  0  0  0  0
    1.5474   -0.2483    3.6955 H   0  0  0  0  0  0
    0.1832    0.7372    3.1808 H   0  0  0  0  0  0
   -5.2624   11.7363    3.6627 H   0  0  0  0  0  0
  1  5  2  0  0  0
  1  2  1  0  0  0
  1 42  1  0  0  0
  2  3  2  0  0  0
  2 12  1  0  0  0
  3  4  1  0  0  0
  3 43  1  0  0  0
  4  6  2  0  0  0
  4 44  1  0  0  0
  5  6  1  0  0  0
  5 10  1  0  0  0
  6  7  1  0  0  0
  7  8  2  0  0  0
  7 11  1  0  0  0
  8  9  1  0  0  0
  8 75  1  0  0  0
  9 10  2  0  0  0
  9 45  1  0  0  0
 10 46  1  0  0  0
 11 47  1  0  0  0
 11 48  1  0  0  0
 12 13  1  0  0  0
 12 49  1  0  0  0
 13 14  1  0  0  0
 13 17  1  0  0  0
 13 50  1  0  0  0
 14 15  1  0  0  0
 14 16  2  0  0  0
 15 23  1  0  0  0
 15 51  1  0  0  0
 17 18  2  0  0  0
 17 22  1  0  0  0
 18 19  1  0  0  0
 18 52  1  0  0  0
 19 20  2  0  0  0
 19 53  1  0  0  0
 20 21  1  0  0  0
 20 34  1  0  0  0
 21 22  2  0  0  0
 21 54  1  0  0  0
 22 55  1  0  0  0
 23 24  1  0  0  0
 23 56  1  0  0  0
 23 57  1  0  0  0
 24 25  2  0  0  0
 24 29  1  0  0  0
 25 26  1  0  0  0
 25 36  1  0  0  0
 26 27  2  0  0  0
 26 58  1  0  0  0
 27 28  1  0  0  0
 27 59  1  0  0  0
 28 29  2  0  0  0
 28 30  1  0  0  0
 29 60  1  0  0  0
 30 31  1  0  0  0
 30 61  1  0  0  0
 31 32  1  0  0  0
 31 33  2  0  0  0
 32 35  1  0  0  0
 32 62  1  0  0  0
 32 63  1  0  0  0
 34 35  1  0  0  0
 34 64  1  0  0  0
 34 65  1  0  0  0
 35 66  1  0  0  0
 35 67  1  0  0  0
 36 37  1  0  0  0
 36 38  2  0  0  0
 36 39  2  0  0  0
 37 40  1  0  0  0
 37 41  1  0  0  0
 37 68  1  0  0  0
 40 69  1  0  0  0
 40 70  1  0  0  0
 40 71  1  0  0  0
 41 72  1  0  0  0
 41 73  1  0  0  0
 41 74  1  0  0  0
M  CHG  1   8   1
M  END
> <chembl_id>
CHEMBL3594311

> <chembl_pref_name>
None

> <i_m_ct_stereo_status>
1

> <s_m_source_file>
sdf/inactives_sanitized.sdf

> <i_m_source_file_index>
96

> <i_lp_mmshare_version>
49012

> <i_f3d_flags>
0

> <s_epik_input>
W2NIXTFbY0hdbmMoW05IMl0pYyhjMTIpW2NIXVtjSF1jKFtjSF0yKVtOSF1bQ0BIXTNDKD1PKVtOSF1bQ0gyXWMoW2NIXTQpYyhTKD1PKSg9TylbQ0hdKFtDSDNdKVtDSDNdKVtjSF1bY0hdYzRbTkhdQyg9TylbQ0gyXVtDSDJdW0NIMl1jKFtjSF1bY0hdYzM1KVtjSF1bY0hdNQ==

> <s_epik_cmdline>
J2VwaWtfcHl0aG9uJywgJy1waHQnLCAnMC41JywgJy1waCcsICc3LjUnLCAnLW50JywgJy1tYScsICcyMDAnLCAnLWltYWUnLCAnPGluZmlsZS5tYWU+JywgJy1vbWFlJywgJzxvdXRmaWxlLm1hZT4n

> <r_epik_Ionization_Penalty>
  0.0146

> <r_epik_Ionization_Penalty_Charging>
  0.0146

> <r_epik_Ionization_Penalty_Neutral>
  0.0000

> <r_epik_State_Penalty>
  0.0115

> <r_epik_Charging_Adjusted_Penalty>
0.0260960353672975

> <i_epik_Tot_Q>
1

> <i_epik_Tot_abs_Q>
1

> <s_lp_Force_Field>
OPLS3e

> <r_lp_Energy>
64.957948

> <b_lp_Chiralities_Consistent>
1

> <s_lp_Variant>
sdf/inactives_sanitized.sdf:96-1

$$$$
sdf/inactives_sanitized.sdf:97
                    3D
 Schrodinger Suite 2020-1.
 65 68  0  0  1  0            999 V2000
   -0.7688   -0.7272   -1.6028 C   0  0  0  0  0  0
   -2.0378   -0.3159   -2.1357 C   0  0  0  0  0  0
   -0.2460   -1.7679   -2.3551 C   0  0  0  0  0  0
   -0.1395   -0.1052   -0.3493 C   0  0  2  0  0  0
   -1.2093   -2.2621   -3.7161 S   0  0  0  0  0  0
    5.2635    1.9177   -2.4654 C   0  0  1  0  0  0
   -2.9289    0.6765   -1.6814 C   0  0  0  0  0  0
    1.3842    0.0972   -0.5189 C   0  0  0  0  0  0
    5.3306    3.4266   -2.1355 C   0  0  0  0  0  0
   -5.0695    1.9305   -1.8340 C   0  0  0  0  0  0
   -4.1463    0.9130   -2.3345 C   0  0  0  0  0  0
   -2.4143   -1.0637   -3.2919 C   0  0  0  0  0  0
    1.7636    1.2238   -1.1573 N   0  0  0  0  0  0
    3.1099    1.6246   -1.1567 N   0  0  2  0  0  0
   -5.7477    2.6707   -2.7035 N   0  3  0  0  0  0
    3.8133    1.3296   -2.4125 C   0  0  2  0  0  0
   -0.4904   -0.9277    0.9229 C   0  0  0  0  0  0
    2.1732   -0.7553   -0.1002 O   0  0  0  0  0  0
    4.3846    4.1903   -2.3476 O   0  0  0  0  0  0
   -4.4670    0.1587   -3.4668 C   0  0  0  0  0  0
   -3.6203   -0.8269   -3.9614 C   0  0  0  0  0  0
   -5.2063    2.0855   -0.5219 N   0  0  0  0  0  0
    6.5180    3.7741   -1.5940 O   0  0  0  0  0  0
   -1.9726   -0.8979    1.2803 C   0  0  0  0  0  0
    5.9076    1.6989   -3.8578 C   0  0  0  0  0  0
    3.8557   -0.1749   -2.8101 C   0  0  0  0  0  0
    6.7745    5.1189   -1.2175 C   0  0  0  0  0  0
   -2.4887    0.1755    2.0119 C   0  0  0  0  0  0
   -2.8160   -1.9322    0.8643 C   0  0  0  0  0  0
    5.9668    0.2024   -4.2031 C   0  0  0  0  0  0
    4.5648   -0.4293   -4.1555 C   0  0  0  0  0  0
   -4.1732   -1.8881    1.1721 C   0  0  0  0  0  0
   -3.8453    0.2169    2.3228 C   0  0  0  0  0  0
   -4.6815   -0.8142    1.8998 C   0  0  0  0  0  0
    0.6887   -2.2789   -2.1727 H   0  0  0  0  0  0
   -0.5417    0.8981   -0.1977 H   0  0  0  0  0  0
    5.8687    1.4026   -1.7174 H   0  0  0  0  0  0
   -2.6826    1.2630   -0.8098 H   0  0  0  0  0  0
    1.1207    1.9884   -1.3049 H   0  0  0  0  0  0
    3.5568    1.2034   -0.3543 H   0  0  0  0  0  0
   -5.6170    2.5259   -3.6943 H   0  0  0  0  0  0
    3.2558    1.8409   -3.2006 H   0  0  0  0  0  0
   -0.1614   -1.9636    0.8170 H   0  0  0  0  0  0
    0.0631   -0.5485    1.7847 H   0  0  0  0  0  0
   -5.4059    0.3310   -3.9722 H   0  0  0  0  0  0
   -3.8956   -1.4002   -4.8351 H   0  0  0  0  0  0
   -5.8397    2.7834   -0.1599 H   0  0  0  0  0  0
   -4.6804    1.4974    0.1087 H   0  0  0  0  0  0
    5.3531    2.2297   -4.6348 H   0  0  0  0  0  0
    6.9323    2.0758   -3.8700 H   0  0  0  0  0  0
    4.3702   -0.7403   -2.0313 H   0  0  0  0  0  0
    2.8481   -0.5850   -2.8813 H   0  0  0  0  0  0
    7.7775    5.1994   -0.7980 H   0  0  0  0  0  0
    6.0627    5.4577   -0.4631 H   0  0  0  0  0  0
    6.7117    5.7858   -2.0785 H   0  0  0  0  0  0
   -1.8415    0.9779    2.3358 H   0  0  0  0  0  0
   -2.4240   -2.7627    0.2949 H   0  0  0  0  0  0
    6.4035    0.0644   -5.1932 H   0  0  0  0  0  0
    6.6266   -0.3125   -3.5028 H   0  0  0  0  0  0
    4.6357   -1.5018   -4.3400 H   0  0  0  0  0  0
    3.9574   -0.0221   -4.9654 H   0  0  0  0  0  0
   -4.8284   -2.6836    0.8486 H   0  0  0  0  0  0
   -4.2465    1.0442    2.8897 H   0  0  0  0  0  0
   -5.7340   -0.7825    2.1411 H   0  0  0  0  0  0
   -6.3904    3.3754   -2.3725 H   0  0  0  0  0  0
  1  2  1  0  0  0
  1  3  2  0  0  0
  1  4  1  0  0  0
  2  7  2  0  0  0
  2 12  1  0  0  0
  3  5  1  0  0  0
  3 35  1  0  0  0
  4  8  1  0  0  0
  4 17  1  0  0  0
  4 36  1  0  0  0
  5 12  1  0  0  0
  6 16  1  0  0  0
  6  9  1  0  0  0
  6 25  1  0  0  0
  6 37  1  0  0  0
  7 11  1  0  0  0
  7 38  1  0  0  0
  8 13  1  0  0  0
  8 18  2  0  0  0
  9 19  2  0  0  0
  9 23  1  0  0  0
 10 11  1  0  0  0
 10 15  2  0  0  0
 10 22  1  0  0  0
 11 20  2  0  0  0
 12 21  2  0  0  0
 13 14  1  0  0  0
 13 39  1  0  0  0
 14 16  1  0  0  0
 14 40  1  0  0  0
 15 41  1  0  0  0
 15 65  1  0  0  0
 16 26  1  0  0  0
 16 42  1  0  0  0
 17 24  1  0  0  0
 17 43  1  0  0  0
 17 44  1  0  0  0
 20 21  1  0  0  0
 20 45  1  0  0  0
 21 46  1  0  0  0
 22 47  1  0  0  0
 22 48  1  0  0  0
 23 27  1  0  0  0
 24 28  2  0  0  0
 24 29  1  0  0  0
 25 30  1  0  0  0
 25 49  1  0  0  0
 25 50  1  0  0  0
 26 31  1  0  0  0
 26 51  1  0  0  0
 26 52  1  0  0  0
 27 53  1  0  0  0
 27 54  1  0  0  0
 27 55  1  0  0  0
 28 33  1  0  0  0
 28 56  1  0  0  0
 29 32  2  0  0  0
 29 57  1  0  0  0
 30 31  1  0  0  0
 30 58  1  0  0  0
 30 59  1  0  0  0
 31 60  1  0  0  0
 31 61  1  0  0  0
 32 34  1  0  0  0
 32 62  1  0  0  0
 33 34  2  0  0  0
 33 63  1  0  0  0
 34 64  1  0  0  0
M  CHG  1  15   1
M  END
> <chembl_id>
CHEMBL183547

> <chembl_pref_name>
None

> <i_m_ct_stereo_status>
1

> <s_m_source_file>
sdf/inactives_sanitized.sdf

> <i_m_source_file_index>
97

> <i_lp_mmshare_version>
49012

> <i_f3d_flags>
0

> <s_epik_input>
W0hdXE49QyhbTkgyXSlcYyhbY0hdMSlbY0hdW2NIXWMoYzEyKXNbY0hdYzJbQ0BASF0oW0NIMl1jM1tjSF1bY0hdW2NIXVtjSF1bY0hdMylDKD1PKVtOSF1bTkhdW0NAQEhdKFtDQEBIXTRDKD1PKU9bQ0gzXSlbQ0gyXVtDSDJdW0NIMl1bQ0gyXTQ=

> <s_epik_cmdline>
J2VwaWtfcHl0aG9uJywgJy1waHQnLCAnMC41JywgJy1waCcsICc3LjUnLCAnLW50JywgJy1tYScsICcyMDAnLCAnLWltYWUnLCAnPGluZmlsZS5tYWU+JywgJy1vbWFlJywgJzxvdXRmaWxlLm1hZT4n

> <r_lp_tautomer_probability>
1

> <r_epik_Ionization_Penalty>
  0.0010

> <r_epik_Ionization_Penalty_Charging>
  0.0010

> <r_epik_Ionization_Penalty_Neutral>
  0.0000

> <r_epik_State_Penalty>
 -0.0000

> <r_epik_Charging_Adjusted_Penalty>
0.000984797499885888

> <i_epik_Tot_Q>
1

> <i_epik_Tot_abs_Q>
1

> <s_epik_Chemistry_Notes>
This compound has an ester and may undergo hydrolysis at high or low pH. This compound has an imine and may undergo hydrolysis.

> <s_lp_Force_Field>
OPLS3e

> <r_lp_Energy>
37.871398

> <b_lp_Chiralities_Consistent>
1

> <s_lp_Variant>
sdf/inactives_sanitized.sdf:97-1

$$$$
sdf/inactives_sanitized.sdf:98
                    3D
 Schrodinger Suite 2020-1.
 53 57  0  0  1  0            999 V2000
    0.1006    0.0502   -0.3432 C   0  0  0  0  0  0
   -0.7071    1.2184   -0.1288 C   0  0  0  0  0  0
    2.3571   -0.7051   -1.2983 C   0  0  0  0  0  0
    1.6232    0.0282   -0.1470 C   0  0  2  0  0  0
   -0.6937   -1.0283   -0.6974 C   0  0  0  0  0  0
   -2.3955   -0.6895   -0.8205 S   0  0  0  0  0  0
   -0.3297    2.5170    0.2665 C   0  0  0  0  0  0
    3.9088   -1.6329   -7.6156 N   0  0  0  0  0  0
    2.1479   -0.1935   -2.5333 N   0  0  0  0  0  0
   -0.8763    4.8637    0.8795 C   0  0  0  0  0  0
   -1.2841    3.5284    0.4438 C   0  0  0  0  0  0
   -2.0949    0.9718   -0.3524 C   0  0  0  0  0  0
    3.9157   -1.9881   -5.2952 C   0  0  0  0  0  0
    4.7079   -2.6542   -7.4951 C   0  0  0  0  0  0
    4.9921   -3.2512   -5.8791 S   0  0  0  0  0  0
    3.4453   -1.2319   -6.4013 C   0  0  0  0  0  0
    3.5196   -1.6873   -3.9851 C   0  0  0  0  0  0
    2.6357   -0.6108   -3.7882 C   0  0  0  0  0  0
   -1.4929    5.9257    0.3735 N   0  3  0  0  0  0
    2.0032   -0.5030    1.2658 C   0  0  0  0  0  0
    3.0648   -1.6834   -1.0546 O   0  0  0  0  0  0
   -2.6306    3.2396    0.2046 C   0  0  0  0  0  0
   -3.0559    1.9769   -0.1932 C   0  0  0  0  0  0
    2.5674   -0.1607   -6.1905 C   0  0  0  0  0  0
    0.0992    4.9786    1.7737 N   0  0  0  0  0  0
    2.1782    0.1308   -4.8828 C   0  0  0  0  0  0
    1.4294    0.3265    2.4099 C   0  0  0  0  0  0
    2.0653    1.5081    2.8010 C   0  0  0  0  0  0
    0.2576   -0.0844    3.0522 C   0  0  0  0  0  0
   -0.2806    0.6884    4.0774 C   0  0  0  0  0  0
    1.5259    2.2809    3.8261 C   0  0  0  0  0  0
    0.3551    1.8681    4.4587 C   0  0  0  0  0  0
    2.0160    1.0441   -0.2068 H   0  0  0  0  0  0
   -0.3499   -2.0321   -0.9021 H   0  0  0  0  0  0
    0.7094    2.7445    0.4471 H   0  0  0  0  0  0
    1.5350    0.6072   -2.5781 H   0  0  0  0  0  0
    5.1829   -3.1244   -8.3435 H   0  0  0  0  0  0
    3.9019   -2.2850   -3.1741 H   0  0  0  0  0  0
   -2.2296    5.8012   -0.3059 H   0  0  0  0  0  0
    1.6916   -1.5434    1.3794 H   0  0  0  0  0  0
    3.0887   -0.5235    1.3847 H   0  0  0  0  0  0
   -3.3727    4.0121    0.3437 H   0  0  0  0  0  0
   -4.1045    1.7790   -0.3635 H   0  0  0  0  0  0
    2.1972    0.4287   -7.0167 H   0  0  0  0  0  0
    0.3923    5.8927    2.0862 H   0  0  0  0  0  0
    0.5383    4.1476    2.1437 H   0  0  0  0  0  0
    1.4998    0.9580   -4.7260 H   0  0  0  0  0  0
    2.9704    1.8305    2.3068 H   0  0  0  0  0  0
   -0.2409   -0.9948    2.7517 H   0  0  0  0  0  0
   -1.1868    0.3744    4.5741 H   0  0  0  0  0  0
    2.0127    3.1960    4.1299 H   0  0  0  0  0  0
   -0.0627    2.4670    5.2547 H   0  0  0  0  0  0
   -1.2239    6.8530    0.6686 H   0  0  0  0  0  0
  1  2  1  0  0  0
  1  4  1  0  0  0
  1  5  2  0  0  0
  2  7  2  0  0  0
  2 12  1  0  0  0
  3  4  1  0  0  0
  3  9  1  0  0  0
  3 21  2  0  0  0
  4 20  1  0  0  0
  4 33  1  0  0  0
  5  6  1  0  0  0
  5 34  1  0  0  0
  6 12  1  0  0  0
  7 11  1  0  0  0
  7 35  1  0  0  0
  8 16  1  0  0  0
  8 14  2  0  0  0
  9 18  1  0  0  0
  9 36  1  0  0  0
 10 11  1  0  0  0
 10 19  2  0  0  0
 10 25  1  0  0  0
 11 22  2  0  0  0
 12 23  2  0  0  0
 13 17  2  0  0  0
 13 15  1  0  0  0
 13 16  1  0  0  0
 14 15  1  0  0  0
 14 37  1  0  0  0
 16 24  2  0  0  0
 17 18  1  0  0  0
 17 38  1  0  0  0
 18 26  2  0  0  0
 19 39  1  0  0  0
 19 53  1  0  0  0
 20 27  1  0  0  0
 20 40  1  0  0  0
 20 41  1  0  0  0
 22 23  1  0  0  0
 22 42  1  0  0  0
 23 43  1  0  0  0
 24 26  1  0  0  0
 24 44  1  0  0  0
 25 45  1  0  0  0
 25 46  1  0  0  0
 26 47  1  0  0  0
 27 28  2  0  0  0
 27 29  1  0  0  0
 28 31  1  0  0  0
 28 48  1  0  0  0
 29 30  2  0  0  0
 29 49  1  0  0  0
 30 32  1  0  0  0
 30 50  1  0  0  0
 31 32  2  0  0  0
 31 51  1  0  0  0
 32 52  1  0  0  0
M  CHG  1  19   1
M  END
> <chembl_id>
CHEMBL181116

> <chembl_pref_name>
None

> <i_m_ct_stereo_status>
1

> <s_m_source_file>
sdf/inactives_sanitized.sdf

> <i_m_source_file_index>
98

> <i_lp_mmshare_version>
49012

> <i_f3d_flags>
0

> <s_epik_input>
W0hdXE49QyhbTkgyXSlcYyhbY0hdMSlbY0hdW2NIXWMoYzEyKXNbY0hdYzJbQ0BASF0oW0NIMl1jM1tjSF1bY0hdW2NIXVtjSF1bY0hdMylDKD1PKVtOSF1jKFtjSF00KVtjSF1bY0hdYyhjNDUpbltjSF1zNQ==

> <s_epik_cmdline>
J2VwaWtfcHl0aG9uJywgJy1waHQnLCAnMC41JywgJy1waCcsICc3LjUnLCAnLW50JywgJy1tYScsICcyMDAnLCAnLWltYWUnLCAnPGluZmlsZS5tYWU+JywgJy1vbWFlJywgJzxvdXRmaWxlLm1hZT4n

> <r_lp_tautomer_probability>
1

> <r_epik_Ionization_Penalty>
  0.0010

> <r_epik_Ionization_Penalty_Charging>
  0.0010

> <r_epik_Ionization_Penalty_Neutral>
  0.0000

> <r_epik_State_Penalty>
 -0.0000

> <r_epik_Charging_Adjusted_Penalty>
0.000984797499885888

> <i_epik_Tot_Q>
1

> <i_epik_Tot_abs_Q>
1

> <s_epik_Chemistry_Notes>
This compound has an imine and may undergo hydrolysis.

> <s_lp_Force_Field>
OPLS3e

> <r_lp_Energy>
39.123033

> <b_lp_Chiralities_Consistent>
1

> <s_lp_Variant>
sdf/inactives_sanitized.sdf:98-1

$$$$
sdf/inactives_sanitized.sdf:99
                    3D
 Schrodinger Suite 2020-1.
 56 60  0  0  1  0            999 V2000
    0.1634    0.0086   -0.0931 C   0  0  0  0  0  0
   -0.5957    1.1617    0.0929 N   0  0  0  0  0  0
   -1.9069    0.9001   -0.0939 N   0  0  0  0  0  0
   -2.0356   -0.3987   -0.2427 C   0  0  0  0  0  0
   -0.7785   -1.0012   -0.2551 C   0  0  0  0  0  0
    7.5210   -2.6985    0.0282 N   0  0  0  0  0  0
    1.5998   -0.0998   -0.2177 C   0  0  0  0  0  0
   -3.3986   -1.0494   -0.4081 C   0  0  0  0  0  0
    8.3524   -2.8021    1.1257 C   0  0  0  0  0  0
    6.1502   -2.3545    0.1002 C   0  0  0  0  0  0
    2.0979   -1.2563    0.2663 N   0  0  0  0  0  0
   -0.1829    2.5235    0.1730 C   0  0  0  0  0  0
    8.2633   -3.0312   -1.1067 C   0  0  0  0  0  0
    5.2044   -3.0037   -0.7048 C   0  0  0  0  0  0
    2.5656    4.5585    1.8208 C   0  0  0  0  0  0
    9.6134   -3.1984    0.7491 C   0  0  0  0  0  0
    3.4486   -1.6143    0.2093 C   0  0  0  0  0  0
    3.8586   -2.6399   -0.6502 C   0  0  0  0  0  0
    0.9409    2.8769    0.9337 C   0  0  0  0  0  0
    1.3824    4.2083    1.0294 C   0  0  0  0  0  0
    9.5887   -3.3560   -0.6695 C   0  0  0  0  0  0
    3.3342    5.5650    1.4222 N   0  3  0  0  0  0
    2.2772    0.7925   -0.7329 O   0  0  0  0  0  0
    5.7322   -1.3253    0.9551 C   0  0  0  0  0  0
    4.3878   -0.9592    1.0135 C   0  0  0  0  0  0
   -3.4664   -1.7183   -1.5586 F   0  0  0  0  0  0
   -3.6297   -1.9172    0.5764 F   0  0  0  0  0  0
   -4.3944   -0.1604   -0.4017 F   0  0  0  0  0  0
    2.8395    3.8605    2.9165 N   0  0  0  0  0  0
    2.9618   -3.2879   -1.4313 F   0  0  0  0  0  0
   -0.8941    3.5352   -0.4889 C   0  0  0  0  0  0
    7.9186   -3.0665   -2.4685 C   0  0  0  0  0  0
    0.6515    5.1921    0.3431 C   0  0  0  0  0  0
   -0.4761    4.8602   -0.4047 C   0  0  0  0  0  0
   10.5501   -3.7365   -1.6185 C   0  0  0  0  0  0
    8.9065   -3.4501   -3.3748 C   0  0  0  0  0  0
   10.1927   -3.7816   -2.9630 C   0  0  0  0  0  0
   -0.5807   -2.0513   -0.4167 H   0  0  0  0  0  0
    7.9663   -2.5945    2.1134 H   0  0  0  0  0  0
    1.4614   -1.9373    0.6542 H   0  0  0  0  0  0
    5.5000   -3.8078   -1.3627 H   0  0  0  0  0  0
   10.4450   -3.3573    1.4195 H   0  0  0  0  0  0
    1.4752    2.1012    1.4639 H   0  0  0  0  0  0
    4.1520    5.8177    1.9573 H   0  0  0  0  0  0
    6.4456   -0.7989    1.5728 H   0  0  0  0  0  0
    4.0807   -0.1648    1.6786 H   0  0  0  0  0  0
    3.6496    4.0927    3.4722 H   0  0  0  0  0  0
    2.2313    3.1035    3.1927 H   0  0  0  0  0  0
   -1.7667    3.3042   -1.0829 H   0  0  0  0  0  0
    6.9338   -2.8018   -2.8222 H   0  0  0  0  0  0
    0.9441    6.2318    0.3893 H   0  0  0  0  0  0
   -1.0269    5.6321   -0.9221 H   0  0  0  0  0  0
   11.5554   -3.9893   -1.3154 H   0  0  0  0  0  0
    8.6674   -3.4874   -4.4276 H   0  0  0  0  0  0
   10.9272   -4.0732   -3.6997 H   0  0  0  0  0  0
    3.0999    6.0703    0.5800 H   0  0  0  0  0  0
  1  2  1  0  0  0
  1  5  2  0  0  0
  1  7  1  0  0  0
  2  3  1  0  0  0
  2 12  1  0  0  0
  3  4  2  0  0  0
  4  5  1  0  0  0
  4  8  1  0  0  0
  5 38  1  0  0  0
  6 10  1  0  0  0
  6  9  1  0  0  0
  6 13  1  0  0  0
  7 11  1  0  0  0
  7 23  2  0  0  0
  8 26  1  0  0  0
  8 27  1  0  0  0
  8 28  1  0  0  0
  9 16  2  0  0  0
  9 39  1  0  0  0
 10 24  2  0  0  0
 10 14  1  0  0  0
 11 17  1  0  0  0
 11 40  1  0  0  0
 12 19  2  0  0  0
 12 31  1  0  0  0
 13 21  2  0  0  0
 13 32  1  0  0  0
 14 18  2  0  0  0
 14 41  1  0  0  0
 15 20  1  0  0  0
 15 22  2  0  0  0
 15 29  1  0  0  0
 16 21  1  0  0  0
 16 42  1  0  0  0
 17 18  1  0  0  0
 17 25  2  0  0  0
 18 30  1  0  0  0
 19 20  1  0  0  0
 19 43  1  0  0  0
 20 33  2  0  0  0
 21 35  1  0  0  0
 22 44  1  0  0  0
 22 56  1  0  0  0
 24 25  1  0  0  0
 24 45  1  0  0  0
 25 46  1  0  0  0
 29 47  1  0  0  0
 29 48  1  0  0  0
 31 34  2  0  0  0
 31 49  1  0  0  0
 32 36  2  0  0  0
 32 50  1  0  0  0
 33 34  1  0  0  0
 33 51  1  0  0  0
 34 52  1  0  0  0
 35 37  2  0  0  0
 35 53  1  0  0  0
 36 37  1  0  0  0
 36 54  1  0  0  0
 37 55  1  0  0  0
M  CHG  1  22   1
M  END
> <chembl_id>
CHEMBL186272

> <chembl_pref_name>
None

> <s_m_source_file>
sdf/inactives_sanitized.sdf

> <i_m_source_file_index>
99

> <i_lp_mmshare_version>
49012

> <i_m_ct_stereo_status>
1

> <i_f3d_flags>
0

> <s_epik_input>
W2NIXTFbY0hdW2NIXWMoL0MoPU4vW0hdKVtOSDJdKVtjSF1jMS1uKG5jKFtjSF0yKUMoRikoRilGKWMyQyg9TylbTkhdYyhbY0hdW2NIXTMpYyhGKVtjSF1jMy1uNFtjSF1bY0hdYyhjNDUpW2NIXVtjSF1bY0hdW2NIXTU=

> <s_epik_cmdline>
J2VwaWtfcHl0aG9uJywgJy1waHQnLCAnMC41JywgJy1waCcsICc3LjUnLCAnLW50JywgJy1tYScsICcyMDAnLCAnLWltYWUnLCAnPGluZmlsZS5tYWU+JywgJy1vbWFlJywgJzxvdXRmaWxlLm1hZT4n

> <r_lp_tautomer_probability>
1

> <r_epik_Ionization_Penalty>
  0.0010

> <r_epik_Ionization_Penalty_Charging>
  0.0010

> <r_epik_Ionization_Penalty_Neutral>
  0.0000

> <r_epik_State_Penalty>
 -0.0000

> <r_epik_Charging_Adjusted_Penalty>
0.000984797499885888

> <i_epik_Tot_Q>
1

> <i_epik_Tot_abs_Q>
1

> <s_epik_Chemistry_Notes>
This compound has an imine and may undergo hydrolysis.

> <s_lp_Force_Field>
OPLS3e

> <r_lp_Energy>
54.168738

> <b_lp_Chiralities_Consistent>
1

> <s_lp_Variant>
sdf/inactives_sanitized.sdf:99-1

$$$$
sdf/inactives_sanitized.sdf:100
                    3D
 Schrodinger Suite 2020-1.
 62 67  0  0  1  0            999 V2000
    0.2202    0.4322    0.0285 C   0  0  0  0  0  0
   -0.5958    1.5234   -0.2637 N   0  0  0  0  0  0
    7.5181   -2.6170    0.1842 N   0  0  0  0  0  0
   -1.8983    1.1881   -0.1444 N   0  0  0  0  0  0
    1.6487    0.4249    0.2570 C   0  0  0  0  0  0
   -0.6680   -0.6253    0.1944 C   0  0  0  0  0  0
    8.6674   -1.9700   -0.2286 C   0  0  0  0  0  0
   -1.9533   -0.1066    0.0546 C   0  0  0  0  0  0
    9.7716   -2.6480   -0.0630 N   0  0  0  0  0  0
    7.9457   -3.8478    0.6669 C   0  0  0  0  0  0
   -0.2628    2.9031   -0.3890 C   0  0  0  0  0  0
   -4.1759   -2.6719   -2.8296 N   0  0  0  0  0  0
   -3.4932   -1.7835   -0.8814 N   0  0  0  0  0  0
    2.4409    5.0308   -1.9910 C   0  0  0  0  0  0
    2.2356   -0.7351   -0.1138 N   0  0  0  0  0  0
    9.3571   -3.8254    0.4936 C   0  0  0  0  0  0
    6.2013   -2.1150    0.0786 C   0  0  0  0  0  0
    0.8771    3.2912   -1.1076 C   0  0  0  0  0  0
    1.2414    4.6423   -1.2440 C   0  0  0  0  0  0
   -4.1946   -1.6158   -2.0511 C   0  0  0  0  0  0
    3.1302    6.0945   -1.5959 N   0  3  0  0  0  0
   -3.2898   -0.8101    0.1803 C   0  0  0  0  0  0
    2.2193    1.3936    0.7584 O   0  0  0  0  0  0
   -3.4405   -3.5547   -2.1762 C   0  0  0  0  0  0
   -2.9855   -3.0552   -0.9649 C   0  0  0  0  0  0
    5.1438   -2.9654   -0.2571 C   0  0  0  0  0  0
    5.9484   -0.7700    0.3656 C   0  0  0  0  0  0
    3.5852   -1.1279   -0.0293 C   0  0  0  0  0  0
    2.8080    4.3102   -3.0440 N   0  0  0  0  0  0
    3.8448   -2.4699   -0.3171 C   0  0  0  0  0  0
    4.6485   -0.2748    0.3075 C   0  0  0  0  0  0
   -1.0683    3.8965    0.1868 C   0  0  0  0  0  0
    7.2937   -4.9517    1.2360 C   0  0  0  0  0  0
    0.4175    5.6080   -0.6424 C   0  0  0  0  0  0
   -0.7265    5.2400    0.0622 C   0  0  0  0  0  0
   10.1299   -4.9289    0.8827 C   0  0  0  0  0  0
    8.0923   -6.0343    1.6117 C   0  0  0  0  0  0
    9.4759   -6.0274    1.4396 C   0  0  0  0  0  0
   -0.4196   -1.6494    0.4331 H   0  0  0  0  0  0
    8.6015   -0.9834   -0.6638 H   0  0  0  0  0  0
    1.6207   -1.4441   -0.4857 H   0  0  0  0  0  0
    1.4853    2.5272   -1.5710 H   0  0  0  0  0  0
   -4.6921   -0.6785   -2.2536 H   0  0  0  0  0  0
    3.9587    6.3740   -2.1002 H   0  0  0  0  0  0
   -4.1327   -0.1161    0.1820 H   0  0  0  0  0  0
   -3.3455   -1.3557    1.1234 H   0  0  0  0  0  0
   -3.2390   -4.5371   -2.5779 H   0  0  0  0  0  0
   -2.3696   -3.4724   -0.1817 H   0  0  0  0  0  0
    5.3190   -4.0054   -0.4898 H   0  0  0  0  0  0
    6.7523   -0.1031    0.6423 H   0  0  0  0  0  0
    3.6320    4.5667   -3.5675 H   0  0  0  0  0  0
    2.2571    3.5106   -3.3205 H   0  0  0  0  0  0
    3.0407   -3.1409   -0.5847 H   0  0  0  0  0  0
    4.5033    0.7704    0.5267 H   0  0  0  0  0  0
   -1.9556    3.6368    0.7463 H   0  0  0  0  0  0
    6.2257   -4.9763    1.3916 H   0  0  0  0  0  0
    0.6496    6.6609   -0.7222 H   0  0  0  0  0  0
   -1.3494    5.9979    0.5146 H   0  0  0  0  0  0
   11.2029   -4.9320    0.7581 H   0  0  0  0  0  0
    7.6247   -6.9026    2.0527 H   0  0  0  0  0  0
   10.0522   -6.8877    1.7474 H   0  0  0  0  0  0
    2.8264    6.6149   -0.7858 H   0  0  0  0  0  0
  1  2  1  0  0  0
  1  5  1  0  0  0
  1  6  2  0  0  0
  2  4  1  0  0  0
  2 11  1  0  0  0
  3 17  1  0  0  0
  3  7  1  0  0  0
  3 10  1  0  0  0
  4  8  2  0  0  0
  5 15  1  0  0  0
  5 23  2  0  0  0
  6  8  1  0  0  0
  6 39  1  0  0  0
  7  9  2  0  0  0
  7 40  1  0  0  0
  8 22  1  0  0  0
  9 16  1  0  0  0
 10 16  2  0  0  0
 10 33  1  0  0  0
 11 18  2  0  0  0
 11 32  1  0  0  0
 12 20  2  0  0  0
 12 24  1  0  0  0
 13 22  1  0  0  0
 13 20  1  0  0  0
 13 25  1  0  0  0
 14 19  1  0  0  0
 14 21  2  0  0  0
 14 29  1  0  0  0
 15 28  1  0  0  0
 15 41  1  0  0  0
 16 36  1  0  0  0
 17 27  2  0  0  0
 17 26  1  0  0  0
 18 19  1  0  0  0
 18 42  1  0  0  0
 19 34  2  0  0  0
 20 43  1  0  0  0
 21 44  1  0  0  0
 21 62  1  0  0  0
 22 45  1  0  0  0
 22 46  1  0  0  0
 24 25  2  0  0  0
 24 47  1  0  0  0
 25 48  1  0  0  0
 26 30  2  0  0  0
 26 49  1  0  0  0
 27 31  1  0  0  0
 27 50  1  0  0  0
 28 30  1  0  0  0
 28 31  2  0  0  0
 29 51  1  0  0  0
 29 52  1  0  0  0
 30 53  1  0  0  0
 31 54  1  0  0  0
 32 35  2  0  0  0
 32 55  1  0  0  0
 33 37  2  0  0  0
 33 56  1  0  0  0
 34 35  1  0  0  0
 34 57  1  0  0  0
 35 58  1  0  0  0
 36 38  2  0  0  0
 36 59  1  0  0  0
 37 38  1  0  0  0
 37 60  1  0  0  0
 38 61  1  0  0  0
M  CHG  1  21   1
M  END
> <chembl_id>
CHEMBL426071

> <chembl_pref_name>
None

> <s_m_source_file>
sdf/inactives_sanitized.sdf

> <i_m_source_file_index>
100

> <i_lp_mmshare_version>
49012

> <i_m_ct_stereo_status>
1

> <i_f3d_flags>
0

> <s_epik_input>
W2NIXTFbY0hdbltjSF1uMVtDSDJdYyhbY0hdMilubigtYzNbY0hdYygvQyg9Ti9bSF0pW05IMl0pW2NIXVtjSF1bY0hdMyljMkMoPU8pW05IXWMoW2NIXVtjSF00KVtjSF1bY0hdYzQtbjVbY0hdbmMoYzU2KVtjSF1bY0hdW2NIXVtjSF02

> <s_epik_cmdline>
J2VwaWtfcHl0aG9uJywgJy1waHQnLCAnMC41JywgJy1waCcsICc3LjUnLCAnLW50JywgJy1tYScsICcyMDAnLCAnLWltYWUnLCAnPGluZmlsZS5tYWU+JywgJy1vbWFlJywgJzxvdXRmaWxlLm1hZT4n

> <r_lp_tautomer_probability>
1

> <r_epik_Ionization_Penalty>
  0.2089

> <r_epik_Ionization_Penalty_Charging>
  0.1987

> <r_epik_Ionization_Penalty_Neutral>
  0.0102

> <r_epik_State_Penalty>
 -0.0000

> <r_epik_Charging_Adjusted_Penalty>
0.198700618063908

> <i_epik_Tot_Q>
1

> <i_epik_Tot_abs_Q>
1

> <s_epik_Chemistry_Notes>
This compound has an imine and may undergo hydrolysis.

> <s_lp_Force_Field>
OPLS3e

> <r_lp_Energy>
49.325462

> <b_lp_Chiralities_Consistent>
1

> <s_lp_Variant>
sdf/inactives_sanitized.sdf:100-1

$$$$
sdf/inactives_sanitized.sdf:101
                    3D
 Schrodinger Suite 2020-1.
 68 73  0  0  1  0            999 V2000
    4.2300   -1.2959   -7.4039 N   0  0  0  0  0  0
   -0.3394   -0.0590    0.0254 C   0  0  0  0  0  0
    4.4415   -2.5598   -7.9216 C   0  0  0  0  0  0
   -1.1344    1.1443    0.0158 C   0  0  0  0  0  0
    4.9513   -2.5856   -9.1237 N   0  0  0  0  0  0
    1.6179   -0.8433   -1.3704 C   0  0  0  0  0  0
   -1.2497   -1.0953    0.1635 C   0  0  0  0  0  0
    1.1810   -0.1476   -0.0637 C   0  0  2  0  0  0
    3.7296   -1.0058   -6.1142 C   0  0  0  0  0  0
   -2.5279   -0.6076    0.2242 N   0  0  0  0  0  0
    4.6573   -0.4200   -8.3948 C   0  0  0  0  0  0
    2.1927   -0.0495   -2.3011 N   0  0  0  0  0  0
   -0.8282    2.5119   -0.0801 C   0  0  0  0  0  0
    4.2210    0.0805   -5.3811 C   0  0  0  0  0  0
   -1.5302    4.9024   -0.1374 C   0  0  0  0  0  0
   -1.8489    3.4743   -0.0503 C   0  0  0  0  0  0
    2.6729   -0.4042   -3.5766 C   0  0  0  0  0  0
   -2.5036    0.7658    0.1399 C   0  0  0  0  0  0
    3.6996    0.3786   -4.1215 C   0  0  0  0  0  0
    5.1006   -1.2666   -9.4483 C   0  0  0  0  0  0
    1.7886   -0.8351    1.1873 C   0  0  0  0  0  0
   -2.4064    5.7324   -0.6916 N   0  3  0  0  0  0
    1.4452   -2.0573   -1.4981 O   0  0  0  0  0  0
    2.6900   -1.7765   -5.5810 C   0  0  0  0  0  0
    2.1662   -1.4809   -4.3230 C   0  0  0  0  0  0
   -3.1779    3.0457    0.0688 C   0  0  0  0  0  0
   -3.5381    1.7027    0.1648 C   0  0  0  0  0  0
   -0.3717    5.3399    0.3426 N   0  0  0  0  0  0
    4.2049    1.4313   -3.4341 F   0  0  0  0  0  0
    1.5783   -0.0361    2.4904 C   0  0  0  0  0  0
    2.1653   -0.7313    3.7094 C   0  0  0  0  0  0
    4.7002    0.9775   -8.5106 C   0  0  0  0  0  0
    5.6091   -0.7101  -10.6308 C   0  0  0  0  0  0
    1.4058   -1.6783    4.4023 C   0  0  0  0  0  0
    3.4612   -0.4247    4.1339 C   0  0  0  0  0  0
    5.2115    1.4994   -9.7013 C   0  0  0  0  0  0
    5.6576    0.6793  -10.7368 C   0  0  0  0  0  0
    3.9950   -1.0625    5.2508 C   0  0  0  0  0  0
    1.9406   -2.3158    5.5186 C   0  0  0  0  0  0
    3.2325   -2.0049    5.9378 C   0  0  0  0  0  0
    4.2013   -3.4305   -7.3286 H   0  0  0  0  0  0
   -1.0858   -2.1619    0.2215 H   0  0  0  0  0  0
    1.5866    0.8660   -0.0834 H   0  0  0  0  0  0
   -3.3348   -1.2074    0.3223 H   0  0  0  0  0  0
    2.3930    0.9005   -2.0244 H   0  0  0  0  0  0
    0.2005    2.8236   -0.1806 H   0  0  0  0  0  0
    5.0237    0.6895   -5.7694 H   0  0  0  0  0  0
    1.3687   -1.8363    1.3042 H   0  0  0  0  0  0
    2.8616   -0.9775    1.0419 H   0  0  0  0  0  0
   -2.1987    6.7186   -0.7512 H   0  0  0  0  0  0
    2.2735   -2.6024   -6.1398 H   0  0  0  0  0  0
    1.3540   -2.0886   -3.9548 H   0  0  0  0  0  0
   -3.9685    3.7809    0.1006 H   0  0  0  0  0  0
   -4.5734    1.4094    0.2616 H   0  0  0  0  0  0
   -0.1450    6.3223    0.2918 H   0  0  0  0  0  0
    0.2731    4.6889    0.7669 H   0  0  0  0  0  0
    2.0165    0.9590    2.3963 H   0  0  0  0  0  0
    0.5151    0.1348    2.6674 H   0  0  0  0  0  0
    4.3507    1.6351   -7.7291 H   0  0  0  0  0  0
    5.9528   -1.3365  -11.4409 H   0  0  0  0  0  0
    0.4045   -1.9210    4.0772 H   0  0  0  0  0  0
    4.0543    0.3046    3.6012 H   0  0  0  0  0  0
    5.2605    2.5714   -9.8257 H   0  0  0  0  0  0
    6.0444    1.1292  -11.6395 H   0  0  0  0  0  0
    4.9957   -0.8280    5.5827 H   0  0  0  0  0  0
    1.3566   -3.0484    6.0560 H   0  0  0  0  0  0
    3.6469   -2.4998    6.8037 H   0  0  0  0  0  0
   -3.2772    5.3721   -1.0540 H   0  0  0  0  0  0
  1  3  1  0  0  0
  1  9  1  0  0  0
  1 11  1  0  0  0
  2  8  1  0  0  0
  2  4  1  0  0  0
  2  7  2  0  0  0
  3  5  2  0  0  0
  3 41  1  0  0  0
  4 13  2  0  0  0
  4 18  1  0  0  0
  5 20  1  0  0  0
  6 12  1  0  0  0
  6  8  1  0  0  0
  6 23  2  0  0  0
  7 10  1  0  0  0
  7 42  1  0  0  0
  8 21  1  0  0  0
  8 43  1  0  0  0
  9 14  2  0  0  0
  9 24  1  0  0  0
 10 18  1  0  0  0
 10 44  1  0  0  0
 11 20  2  0  0  0
 11 32  1  0  0  0
 12 17  1  0  0  0
 12 45  1  0  0  0
 13 16  1  0  0  0
 13 46  1  0  0  0
 14 19  1  0  0  0
 14 47  1  0  0  0
 15 16  1  0  0  0
 15 22  2  0  0  0
 15 28  1  0  0  0
 16 26  2  0  0  0
 17 25  1  0  0  0
 17 19  2  0  0  0
 18 27  2  0  0  0
 19 29  1  0  0  0
 20 33  1  0  0  0
 21 30  1  0  0  0
 21 48  1  0  0  0
 21 49  1  0  0  0
 22 50  1  0  0  0
 22 68  1  0  0  0
 24 25  2  0  0  0
 24 51  1  0  0  0
 25 52  1  0  0  0
 26 27  1  0  0  0
 26 53  1  0  0  0
 27 54  1  0  0  0
 28 55  1  0  0  0
 28 56  1  0  0  0
 30 31  1  0  0  0
 30 57  1  0  0  0
 30 58  1  0  0  0
 31 34  2  0  0  0
 31 35  1  0  0  0
 32 36  2  0  0  0
 32 59  1  0  0  0
 33 37  2  0  0  0
 33 60  1  0  0  0
 34 39  1  0  0  0
 34 61  1  0  0  0
 35 38  2  0  0  0
 35 62  1  0  0  0
 36 37  1  0  0  0
 36 63  1  0  0  0
 37 64  1  0  0  0
 38 40  1  0  0  0
 38 65  1  0  0  0
 39 40  2  0  0  0
 39 66  1  0  0  0
 40 67  1  0  0  0
M  CHG  1  22   1
M  END
> <chembl_id>
CHEMBL186076

> <chembl_pref_name>
None

> <s_m_source_file>
sdf/inactives_sanitized.sdf

> <i_m_source_file_index>
101

> <i_lp_mmshare_version>
49012

> <i_m_ct_stereo_status>
1

> <i_f3d_flags>
0

> <s_epik_input>
W2NIXTFbY0hdW2NIXVtjSF1jKGMxMiluW2NIXW4yLWMzW2NIXWMoRiljKFtjSF1bY0hdMylbTkhdQyg9TylbQ0BIXShbQ0gyXVtDSDJdYzRbY0hdW2NIXVtjSF1bY0hdW2NIXTQpYzVbY0hdW25IXWMoYzU2KVtjSF1bY0hdYyhbY0hdNikvQyg9Ti9bSF0pW05IMl0=

> <s_epik_cmdline>
J2VwaWtfcHl0aG9uJywgJy1waHQnLCAnMC41JywgJy1waCcsICc3LjUnLCAnLW50JywgJy1tYScsICcyMDAnLCAnLWltYWUnLCAnPGluZmlsZS5tYWU+JywgJy1vbWFlJywgJzxvdXRmaWxlLm1hZT4n

> <r_epik_Ionization_Penalty>
  0.0112

> <r_epik_Ionization_Penalty_Charging>
  0.0010

> <r_epik_Ionization_Penalty_Neutral>
  0.0102

> <r_epik_State_Penalty>
  0.0078

> <r_epik_Charging_Adjusted_Penalty>
0.00877873498810205

> <i_epik_Tot_Q>
1

> <i_epik_Tot_abs_Q>
1

> <s_epik_Chemistry_Notes>
This compound has an imine and may undergo hydrolysis.

> <s_lp_Force_Field>
OPLS3e

> <r_lp_Energy>
51.993255

> <b_lp_Chiralities_Consistent>
1

> <s_lp_Variant>
sdf/inactives_sanitized.sdf:101-1

$$$$
sdf/inactives_sanitized.sdf:102
                    3D
 Schrodinger Suite 2020-1.
 48 51  0  0  1  0            999 V2000
   -0.0948    0.1933   -0.0465 O   0  0  0  0  0  0
   -0.8444    1.3974    0.0880 C   0  0  0  0  0  0
   -2.3265    1.0619    0.0812 C   0  0  0  0  0  0
   -2.9951    0.8927   -1.1335 C   0  0  0  0  0  0
   -5.0434    0.4412    0.0619 C   0  0  0  0  0  0
   -4.3749    0.6064    1.2771 C   0  0  0  0  0  0
   -4.3530    0.5841   -1.1430 C   0  0  0  0  0  0
   -3.0172    0.9154    1.2866 C   0  0  0  0  0  0
    4.2196    2.6922    0.0246 C   0  0  0  0  0  0
    5.3630    2.7672    0.8256 C   0  0  0  0  0  0
    6.1222    3.9295    0.9211 C   0  0  0  0  0  0
    3.8192    3.8191   -0.7062 C   0  0  0  0  0  0
    4.5580    5.0133   -0.6407 C   0  0  0  0  0  0
    5.7154    5.0484    0.1847 C   0  0  0  0  0  0
    6.4956    6.6198    0.1324 S   0  0  0  0  0  0
    5.2861    7.2244   -0.9941 C   0  0  0  0  0  0
    4.3359    6.2580   -1.2932 C   0  0  0  0  0  0
    5.3329    8.5249   -1.4618 C   0  0  0  0  0  0
    6.5113    9.0943   -1.6817 N   0  0  0  0  0  0
    4.1905    9.1625   -1.6833 N   0  3  0  0  0  0
    3.4364    1.4257   -0.0524 C   0  0  0  0  0  0
    4.0842    0.1888   -0.1673 C   0  0  0  0  0  0
    1.9632   -0.9595   -0.1993 C   0  0  0  0  0  0
    1.2851    0.2546   -0.0831 C   0  0  0  0  0  0
    3.3548   -0.9957   -0.2410 C   0  0  0  0  0  0
    2.0344    1.4422   -0.0115 C   0  0  0  0  0  0
   -6.5245    0.1089    0.0421 C   0  0  0  0  0  0
   -0.5849    1.9101    1.0166 H   0  0  0  0  0  0
   -0.6282    2.0843   -0.7328 H   0  0  0  0  0  0
   -2.4651    0.9996   -2.0691 H   0  0  0  0  0  0
   -4.9025    0.4960    2.2134 H   0  0  0  0  0  0
   -4.8659    0.4561   -2.0852 H   0  0  0  0  0  0
   -2.5054    1.0394    2.2299 H   0  0  0  0  0  0
    5.6733    1.9044    1.3975 H   0  0  0  0  0  0
    7.0012    3.9619    1.5485 H   0  0  0  0  0  0
    2.9404    3.7676   -1.3325 H   0  0  0  0  0  0
    3.5066    6.4295   -1.9636 H   0  0  0  0  0  0
    6.5564   10.0435   -2.0222 H   0  0  0  0  0  0
    7.3591    8.5758   -1.5027 H   0  0  0  0  0  0
    4.2023   10.1125   -2.0242 H   0  0  0  0  0  0
    5.1628    0.1392   -0.2071 H   0  0  0  0  0  0
    1.4059   -1.8832   -0.2567 H   0  0  0  0  0  0
    3.8680   -1.9418   -0.3317 H   0  0  0  0  0  0
    1.5340    2.3938    0.0841 H   0  0  0  0  0  0
   -6.9578    0.0926    1.0430 H   0  0  0  0  0  0
   -6.6870   -0.8635   -0.4240 H   0  0  0  0  0  0
   -7.0668    0.8481   -0.5488 H   0  0  0  0  0  0
    3.3138    8.6988   -1.4957 H   0  0  0  0  0  0
  1  2  1  0  0  0
  1 24  1  0  0  0
  2  3  1  0  0  0
  2 28  1  0  0  0
  2 29  1  0  0  0
  3  8  2  0  0  0
  3  4  1  0  0  0
  4  7  2  0  0  0
  4 30  1  0  0  0
  5  7  1  0  0  0
  5  6  2  0  0  0
  5 27  1  0  0  0
  6  8  1  0  0  0
  6 31  1  0  0  0
  7 32  1  0  0  0
  8 33  1  0  0  0
  9 10  2  0  0  0
  9 21  1  0  0  0
  9 12  1  0  0  0
 10 11  1  0  0  0
 10 34  1  0  0  0
 11 14  2  0  0  0
 11 35  1  0  0  0
 12 13  2  0  0  0
 12 36  1  0  0  0
 13 17  1  0  0  0
 13 14  1  0  0  0
 14 15  1  0  0  0
 15 16  1  0  0  0
 16 17  2  0  0  0
 16 18  1  0  0  0
 17 37  1  0  0  0
 18 19  1  0  0  0
 18 20  2  0  0  0
 19 38  1  0  0  0
 19 39  1  0  0  0
 20 40  1  0  0  0
 20 48  1  0  0  0
 21 22  2  0  0  0
 21 26  1  0  0  0
 22 25  1  0  0  0
 22 41  1  0  0  0
 23 24  1  0  0  0
 23 25  2  0  0  0
 23 42  1  0  0  0
 24 26  2  0  0  0
 25 43  1  0  0  0
 26 44  1  0  0  0
 27 45  1  0  0  0
 27 46  1  0  0  0
 27 47  1  0  0  0
M  CHG  1  20   1
M  END
> <chembl_id>
CHEMBL609324

> <chembl_pref_name>
None

> <s_m_source_file>
sdf/inactives_sanitized.sdf

> <i_m_source_file_index>
102

> <i_lp_mmshare_version>
49012

> <i_m_ct_stereo_status>
1

> <i_f3d_flags>
0

> <s_epik_input>
W2NIXTFbY0hdYyhbQ0gzXSlbY0hdW2NIXWMxW0NIMl1PYyhbY0hdMilbY0hdW2NIXVtjSF1jMi1jKFtjSF0zKVtjSF1bY0hdYyhjMzQpc2MoW2NIXTQpL0MoW05IMl0pPU4vW0hd

> <s_epik_cmdline>
J2VwaWtfcHl0aG9uJywgJy1waHQnLCAnMC41JywgJy1waCcsICc3LjUnLCAnLW50JywgJy1tYScsICcyMDAnLCAnLWltYWUnLCAnPGluZmlsZS5tYWU+JywgJy1vbWFlJywgJzxvdXRmaWxlLm1hZT4n

> <r_lp_tautomer_probability>
1

> <r_epik_Ionization_Penalty>
  0.0095

> <r_epik_Ionization_Penalty_Charging>
  0.0095

> <r_epik_Ionization_Penalty_Neutral>
  0.0000

> <r_epik_State_Penalty>
 -0.0000

> <r_epik_Charging_Adjusted_Penalty>
0.00945881282357717

> <i_epik_Tot_Q>
1

> <i_epik_Tot_abs_Q>
1

> <s_epik_Chemistry_Notes>
This compound has an imine and may undergo hydrolysis.

> <s_lp_Force_Field>
OPLS3e

> <r_lp_Energy>
30.522941

> <b_lp_Chiralities_Consistent>
1

> <s_lp_Variant>
sdf/inactives_sanitized.sdf:102-1

$$$$
sdf/inactives_sanitized.sdf:103
                    3D
 Schrodinger Suite 2020-1.
 31 33  0  0  1  0            999 V2000
   -2.3614    0.6778   -0.0000 C   0  0  0  0  0  0
   -2.1708   -0.7344   -0.0000 C   0  0  0  0  0  0
   -0.7849   -1.0703   -0.0000 C   0  0  0  0  0  0
    0.0736    0.0238   -0.0000 C   0  0  0  0  0  0
   -0.8325    1.5369    0.0000 S   0  0  0  0  0  0
   -3.3104   -1.5713   -0.0000 C   0  0  0  0  0  0
   -4.5781   -0.9823   -0.0000 C   0  0  0  0  0  0
   -4.7410    0.3980   -0.0000 C   0  0  0  0  0  0
   -3.6412    1.2489   -0.0000 C   0  0  0  0  0  0
    1.4656    0.0062   -0.0000 C   0  0  0  0  0  0
    2.0959   -1.1625   -0.0000 N   0  3  0  0  0  0
    2.1443    1.1475   -0.0000 N   0  0  0  0  0  0
   -3.1811   -3.0462   -0.0000 C   0  0  0  0  0  0
   -3.1207   -3.7459   -1.2087 C   0  0  0  0  0  0
   -3.0020   -5.1334   -1.2098 C   0  0  0  0  0  0
   -2.9436   -5.8212   -0.0000 C   0  0  0  0  0  0
   -3.0020   -5.1334    1.2098 C   0  0  0  0  0  0
   -3.1207   -3.7459    1.2087 C   0  0  0  0  0  0
   -0.4402   -2.0937   -0.0000 H   0  0  0  0  0  0
   -5.4580   -1.6098   -0.0000 H   0  0  0  0  0  0
   -5.7377    0.8151   -0.0000 H   0  0  0  0  0  0
   -3.7758    2.3210    0.0000 H   0  0  0  0  0  0
    1.5630   -2.0197    0.0000 H   0  0  0  0  0  0
    3.1536    1.1345   -0.0000 H   0  0  0  0  0  0
    1.6448    2.0250   -0.0000 H   0  0  0  0  0  0
   -3.1670   -3.2152   -2.1488 H   0  0  0  0  0  0
   -2.9565   -5.6734   -2.1442 H   0  0  0  0  0  0
   -2.8540   -6.8977   -0.0000 H   0  0  0  0  0  0
   -2.9565   -5.6734    2.1442 H   0  0  0  0  0  0
   -3.1670   -3.2152    2.1488 H   0  0  0  0  0  0
    3.1050   -1.1898   -0.0000 H   0  0  0  0  0  0
  1  2  2  0  0  0
  1  5  1  0  0  0
  1  9  1  0  0  0
  2  3  1  0  0  0
  2  6  1  0  0  0
  3  4  2  0  0  0
  3 19  1  0  0  0
  4  5  1  0  0  0
  4 10  1  0  0  0
  6  7  2  0  0  0
  6 13  1  0  0  0
  7  8  1  0  0  0
  7 20  1  0  0  0
  8  9  2  0  0  0
  8 21  1  0  0  0
  9 22  1  0  0  0
 10 11  2  0  0  0
 10 12  1  0  0  0
 11 23  1  0  0  0
 11 31  1  0  0  0
 12 24  1  0  0  0
 12 25  1  0  0  0
 13 14  2  0  0  0
 13 18  1  0  0  0
 14 15  1  0  0  0
 14 26  1  0  0  0
 15 16  2  0  0  0
 15 27  1  0  0  0
 16 17  1  0  0  0
 16 28  1  0  0  0
 17 18  2  0  0  0
 17 29  1  0  0  0
 18 30  1  0  0  0
M  CHG  1  11   1
M  END
> <chembl_id>
CHEMBL591931

> <chembl_pref_name>
None

> <s_m_source_file>
sdf/inactives_sanitized.sdf

> <i_m_source_file_index>
103

> <i_lp_mmshare_version>
49012

> <i_m_ct_stereo_status>
1

> <i_f3d_flags>
0

> <s_epik_input>
W0hdL049QyhbTkgyXSlcYyhzMSlbY0hdYyhjMTIpYyhbY0hdW2NIXVtjSF0yKS1jM1tjSF1bY0hdW2NIXVtjSF1bY0hdMw==

> <s_epik_cmdline>
J2VwaWtfcHl0aG9uJywgJy1waHQnLCAnMC41JywgJy1waCcsICc3LjUnLCAnLW50JywgJy1tYScsICcyMDAnLCAnLWltYWUnLCAnPGluZmlsZS5tYWU+JywgJy1vbWFlJywgJzxvdXRmaWxlLm1hZT4n

> <r_lp_tautomer_probability>
1

> <r_epik_Ionization_Penalty>
  0.0095

> <r_epik_Ionization_Penalty_Charging>
  0.0095

> <r_epik_Ionization_Penalty_Neutral>
  0.0000

> <r_epik_State_Penalty>
 -0.0000

> <r_epik_Charging_Adjusted_Penalty>
0.00945881282357717

> <i_epik_Tot_Q>
1

> <i_epik_Tot_abs_Q>
1

> <s_epik_Chemistry_Notes>
This compound has an imine and may undergo hydrolysis.

> <s_lp_Force_Field>
OPLS3e

> <r_lp_Energy>
21.433615

> <b_lp_Chiralities_Consistent>
1

> <s_lp_Variant>
sdf/inactives_sanitized.sdf:103-1

$$$$
sdf/inactives_sanitized.sdf:104
                    3D
 Schrodinger Suite 2020-1.
 59 62  0  0  1  0            999 V2000
   -3.0996    0.1816   -0.5640 C   0  0  0  0  0  0
   -4.4616    0.2170   -0.8420 C   0  0  0  0  0  0
   -4.9873   -0.4399   -1.9501 C   0  0  0  0  0  0
   -2.2094   -0.5181   -1.3919 C   0  0  0  0  0  0
   -2.7085   -1.1975   -2.5220 C   0  0  0  0  0  0
   -4.1083   -1.1441   -2.7849 C   0  0  0  0  0  0
   -4.5276   -2.0462   -4.2315 S   0  0  0  0  0  0
   -2.8443   -2.4860   -4.4919 C   0  0  0  0  0  0
   -2.0210   -1.9693   -3.5028 C   0  0  0  0  0  0
   -2.4683   -3.2724   -5.5645 C   0  0  0  0  0  0
   -3.0974   -3.1307   -6.7242 N   0  0  0  0  0  0
   -1.4775   -4.1396   -5.4007 N   0  3  0  0  0  0
   -0.8425   -0.6224   -1.2083 O   0  0  0  0  0  0
   -0.1988    0.0656   -0.1272 C   0  0  2  0  0  0
    1.3102    0.1248   -0.4397 C   0  0  0  0  0  0
   -0.4350   -0.6537    1.2078 C   0  0  0  0  0  0
    1.9639    1.1982    0.0590 N   0  0  0  0  0  0
    3.3234    1.5541   -0.0373 C   0  0  0  0  0  0
    1.8283   -0.7696   -1.1110 O   0  0  0  0  0  0
   -0.4383    0.0868    2.3951 C   0  0  0  0  0  0
   -0.6296   -0.5512    3.6176 C   0  0  0  0  0  0
   -0.8102   -1.9317    3.6544 C   0  0  0  0  0  0
   -0.7981   -2.6805    2.4801 C   0  0  0  0  0  0
   -0.6066   -2.0430    1.2572 C   0  0  0  0  0  0
    3.6603    2.8041    0.4849 C   0  0  0  0  0  0
    4.9759    3.2561    0.4396 C   0  0  0  0  0  0
    5.9780    2.4697   -0.1405 C   0  0  0  0  0  0
    5.6429    1.2035   -0.6392 C   0  0  0  0  0  0
    4.3283    0.7479   -0.5936 C   0  0  0  0  0  0
    7.4074    2.9724   -0.1562 C   0  0  0  0  0  0
    8.2038    2.7063   -1.2272 N   0  0  0  0  0  0
    9.6628    2.8083   -1.1460 C   0  0  0  0  0  0
    7.7266    2.3653   -2.5701 C   0  0  0  0  0  0
    7.8194    3.5935    0.8271 O   0  0  0  0  0  0
   -2.7478    0.7055    0.3115 H   0  0  0  0  0  0
   -5.1226    0.7637   -0.1852 H   0  0  0  0  0  0
   -6.0473   -0.4049   -2.1569 H   0  0  0  0  0  0
   -0.9526   -2.1272   -3.4786 H   0  0  0  0  0  0
   -2.8284   -3.6965   -7.5156 H   0  0  0  0  0  0
   -3.8380   -2.4500   -6.8112 H   0  0  0  0  0  0
   -1.1878   -4.7242   -6.1709 H   0  0  0  0  0  0
   -0.5728    1.0909   -0.0702 H   0  0  0  0  0  0
    1.3988    1.8670    0.5612 H   0  0  0  0  0  0
   -0.2938    1.1573    2.3724 H   0  0  0  0  0  0
   -0.6351    0.0215    4.5335 H   0  0  0  0  0  0
   -0.9566   -2.4271    4.6031 H   0  0  0  0  0  0
   -0.9329   -3.7513    2.5185 H   0  0  0  0  0  0
   -0.5894   -2.6314    0.3513 H   0  0  0  0  0  0
    2.9046    3.4362    0.9296 H   0  0  0  0  0  0
    5.2075    4.2282    0.8520 H   0  0  0  0  0  0
    6.3991    0.5529   -1.0541 H   0  0  0  0  0  0
    4.1308   -0.2361   -0.9861 H   0  0  0  0  0  0
   10.0220    3.0172   -0.1373 H   0  0  0  0  0  0
   10.0231    3.6028   -1.8003 H   0  0  0  0  0  0
   10.1213    1.8730   -1.4689 H   0  0  0  0  0  0
    6.6461    2.4577   -2.6789 H   0  0  0  0  0  0
    8.0135    1.3452   -2.8269 H   0  0  0  0  0  0
    8.1746    3.0344   -3.3059 H   0  0  0  0  0  0
   -1.0224   -4.2161   -4.5028 H   0  0  0  0  0  0
  1  4  2  0  0  0
  1  2  1  0  0  0
  1 35  1  0  0  0
  2  3  2  0  0  0
  2 36  1  0  0  0
  3  6  1  0  0  0
  3 37  1  0  0  0
  4 13  1  0  0  0
  4  5  1  0  0  0
  5  9  1  0  0  0
  5  6  2  0  0  0
  6  7  1  0  0  0
  7  8  1  0  0  0
  8  9  2  0  0  0
  8 10  1  0  0  0
  9 38  1  0  0  0
 10 11  1  0  0  0
 10 12  2  0  0  0
 11 39  1  0  0  0
 11 40  1  0  0  0
 12 41  1  0  0  0
 12 59  1  0  0  0
 13 14  1  0  0  0
 14 15  1  0  0  0
 14 16  1  0  0  0
 14 42  1  0  0  0
 15 17  1  0  0  0
 15 19  2  0  0  0
 16 20  2  0  0  0
 16 24  1  0  0  0
 17 18  1  0  0  0
 17 43  1  0  0  0
 18 25  2  0  0  0
 18 29  1  0  0  0
 20 21  1  0  0  0
 20 44  1  0  0  0
 21 22  2  0  0  0
 21 45  1  0  0  0
 22 23  1  0  0  0
 22 46  1  0  0  0
 23 24  2  0  0  0
 23 47  1  0  0  0
 24 48  1  0  0  0
 25 26  1  0  0  0
 25 49  1  0  0  0
 26 27  2  0  0  0
 26 50  1  0  0  0
 27 28  1  0  0  0
 27 30  1  0  0  0
 28 29  2  0  0  0
 28 51  1  0  0  0
 29 52  1  0  0  0
 30 31  1  0  0  0
 30 34  2  0  0  0
 31 32  1  0  0  0
 31 33  1  0  0  0
 32 53  1  0  0  0
 32 54  1  0  0  0
 32 55  1  0  0  0
 33 56  1  0  0  0
 33 57  1  0  0  0
 33 58  1  0  0  0
M  CHG  1  12   1
M  END
> <chembl_id>
CHEMBL599613

> <chembl_pref_name>
None

> <s_m_source_file>
sdf/inactives_sanitized.sdf

> <i_m_source_file_index>
104

> <i_lp_mmshare_version>
49012

> <i_m_ct_stereo_status>
1

> <i_f3d_flags>
0

> <s_epik_input>
W0hdXE49QyhbTkgyXSlcYyhbY0hdMSlzYyhjMTIpW2NIXVtjSF1bY0hdYzJPW0NAQEhdKGMzW2NIXVtjSF1bY0hdW2NIXVtjSF0zKUMoPU8pW05IXWM0W2NIXVtjSF1jKFtjSF1bY0hdNClDKD1PKU4oW0NIM10pW0NIM10=

> <s_epik_cmdline>
J2VwaWtfcHl0aG9uJywgJy1waHQnLCAnMC41JywgJy1waCcsICc3LjUnLCAnLW50JywgJy1tYScsICcyMDAnLCAnLWltYWUnLCAnPGluZmlsZS5tYWU+JywgJy1vbWFlJywgJzxvdXRmaWxlLm1hZT4n

> <r_lp_tautomer_probability>
1

> <r_epik_Ionization_Penalty>
  0.0095

> <r_epik_Ionization_Penalty_Charging>
  0.0095

> <r_epik_Ionization_Penalty_Neutral>
  0.0000

> <r_epik_State_Penalty>
 -0.0000

> <r_epik_Charging_Adjusted_Penalty>
0.00945881282357717

> <i_epik_Tot_Q>
1

> <i_epik_Tot_abs_Q>
1

> <s_epik_Chemistry_Notes>
This compound has an imine and may undergo hydrolysis.

> <s_lp_Force_Field>
OPLS3e

> <r_lp_Energy>
55.669465

> <b_lp_Chiralities_Consistent>
1

> <s_lp_Variant>
sdf/inactives_sanitized.sdf:104-1

$$$$
sdf/inactives_sanitized.sdf:105
                    3D
 Schrodinger Suite 2020-1.
 57 60  0  0  1  0            999 V2000
   -0.3873   -0.9665    1.8301 C   0  0  2  0  0  0
    0.1580    0.0586    0.7977 C   0  0  2  0  0  0
   -0.5435   -0.3308   -0.5232 C   0  0  0  0  0  0
   -0.8649   -1.7566   -0.3734 N   0  0  0  0  0  0
   -0.6429   -2.2400    0.9919 C   0  0  0  0  0  0
   -1.7038   -0.4052    2.4354 C   0  0  0  0  0  0
   -1.5810    0.1559    3.6600 N   0  0  0  0  0  0
   -2.7792   -0.5677    1.8535 O   0  0  0  0  0  0
   -2.5782    0.7179    4.4790 C   0  0  0  0  0  0
    1.6984   -0.1135    0.6979 C   0  0  0  0  0  0
    2.1924   -0.9768   -0.0329 O   0  0  0  0  0  0
    2.4310    0.7902    1.3822 N   0  0  0  0  0  0
    3.8308    0.8455    1.4110 C   0  0  0  0  0  0
    4.4591    0.8057    2.6579 C   0  0  0  0  0  0
    5.8475    0.8972    2.7487 C   0  0  0  0  0  0
    6.6267    1.0512    1.5930 C   0  0  0  0  0  0
    5.9897    1.1111    0.3438 C   0  0  0  0  0  0
    4.6006    1.0205    0.2492 C   0  0  0  0  0  0
    8.0370    1.1438    1.6921 N   0  0  0  0  0  0
    8.7048    2.2541    1.1992 C   0  0  0  0  0  0
   10.1589    2.2230    1.3755 C   0  0  0  0  0  0
   10.8044    1.2432    2.0506 C   0  0  0  0  0  0
   10.0441    0.1322    2.5939 C   0  0  0  0  0  0
    8.7141    0.1460    2.3769 C   0  0  0  0  0  0
   -3.8794    0.8159    4.0766 N   0  0  0  0  0  0
   -4.7808    1.3728    4.9247 C   0  0  0  0  0  0
   -4.4318    1.8518    6.1875 C   0  0  0  0  0  0
   -3.1000    1.7534    6.5928 C   0  0  0  0  0  0
   -2.1605    1.1813    5.7322 C   0  0  0  0  0  0
   -5.6202    2.5498    7.2258 Cl  0  0  0  0  0  0
    8.1619    3.2346    0.6852 O   0  0  0  0  0  0
    4.0166    1.1205   -0.9684 F   0  0  0  0  0  0
   -1.3342   -2.5886   -1.3928 C   0  0  0  0  0  0
   -1.4726   -1.9090   -2.5595 O   0  0  0  0  0  0
   -1.9320   -2.5644   -3.7333 C   0  0  0  0  0  0
   -1.5948   -3.7875   -1.2611 O   0  0  0  0  0  0
    0.3212   -1.1032    2.6517 H   0  0  0  0  0  0
   -0.0371    1.0824    1.1283 H   0  0  0  0  0  0
   -1.4694    0.2357   -0.6290 H   0  0  0  0  0  0
    0.0529   -0.0947   -1.4062 H   0  0  0  0  0  0
   -1.4538   -2.8549    1.3866 H   0  0  0  0  0  0
    0.2446   -2.8741    1.0062 H   0  0  0  0  0  0
   -0.6548    0.1674    4.0604 H   0  0  0  0  0  0
    1.9467    1.4246    2.0001 H   0  0  0  0  0  0
    3.8766    0.6973    3.5618 H   0  0  0  0  0  0
    6.3139    0.8593    3.7227 H   0  0  0  0  0  0
    6.5709    1.2360   -0.5588 H   0  0  0  0  0  0
   10.7330    3.0384    0.9598 H   0  0  0  0  0  0
   11.8788    1.2728    2.1606 H   0  0  0  0  0  0
   10.5235   -0.6728    3.1316 H   0  0  0  0  0  0
    8.0721   -0.6509    2.7271 H   0  0  0  0  0  0
   -5.8003    1.4294    4.5723 H   0  0  0  0  0  0
   -2.7957    2.1149    7.5642 H   0  0  0  0  0  0
   -1.1282    1.1022    6.0419 H   0  0  0  0  0  0
   -2.0073   -1.8487   -4.5518 H   0  0  0  0  0  0
   -2.9175   -3.0060   -3.5773 H   0  0  0  0  0  0
   -1.2420   -3.3541   -4.0341 H   0  0  0  0  0  0
  1  5  1  0  0  0
  1  2  1  0  0  0
  1  6  1  0  0  0
  1 37  1  0  0  0
  2 10  1  0  0  0
  2  3  1  0  0  0
  2 38  1  0  0  0
  3  4  1  0  0  0
  3 39  1  0  0  0
  3 40  1  0  0  0
  4  5  1  0  0  0
  4 33  1  0  0  0
  5 41  1  0  0  0
  5 42  1  0  0  0
  6  7  1  0  0  0
  6  8  2  0  0  0
  7  9  1  0  0  0
  7 43  1  0  0  0
  9 25  2  0  0  0
  9 29  1  0  0  0
 10 11  2  0  0  0
 10 12  1  0  0  0
 12 13  1  0  0  0
 12 44  1  0  0  0
 13 18  1  0  0  0
 13 14  2  0  0  0
 14 15  1  0  0  0
 14 45  1  0  0  0
 15 16  2  0  0  0
 15 46  1  0  0  0
 16 19  1  0  0  0
 16 17  1  0  0  0
 17 18  2  0  0  0
 17 47  1  0  0  0
 18 32  1  0  0  0
 19 20  1  0  0  0
 19 24  1  0  0  0
 20 21  1  0  0  0
 20 31  2  0  0  0
 21 22  2  0  0  0
 21 48  1  0  0  0
 22 23  1  0  0  0
 22 49  1  0  0  0
 23 24  2  0  0  0
 23 50  1  0  0  0
 24 51  1  0  0  0
 25 26  1  0  0  0
 26 27  2  0  0  0
 26 52  1  0  0  0
 27 28  1  0  0  0
 27 30  1  0  0  0
 28 29  2  0  0  0
 28 53  1  0  0  0
 29 54  1  0  0  0
 33 34  1  0  0  0
 33 36  2  0  0  0
 34 35  1  0  0  0
 35 55  1  0  0  0
 35 56  1  0  0  0
 35 57  1  0  0  0
M  END
> <chembl_id>
CHEMBL1221916

> <chembl_pref_name>
None

> <i_m_ct_stereo_status>
1

> <s_m_source_file>
sdf/inactives_sanitized.sdf

> <i_m_source_file_index>
105

> <i_lp_mmshare_version>
49012

> <i_f3d_flags>
0

> <s_epik_input>
W2NIXTFbY0hdYyhDbClbY0hdbmMxW05IXUMoPU8pW0NAQEhdMltDQEhdKFtDSDJdTihbQ0gyXTIpQyg9TylPW0NIM10pQyg9TylbTkhdYzNbY0hdW2NIXWMoW2NIXWMzRiktbjRjKD1PKVtjSF1bY0hdW2NIXVtjSF00

> <s_epik_cmdline>
J2VwaWtfcHl0aG9uJywgJy1waHQnLCAnMC41JywgJy1waCcsICc3LjUnLCAnLW50JywgJy1tYScsICcyMDAnLCAnLWltYWUnLCAnPGluZmlsZS5tYWU+JywgJy1vbWFlJywgJzxvdXRmaWxlLm1hZT4n

> <r_lp_tautomer_probability>
1

> <r_epik_Ionization_Penalty>
  0.0000

> <r_epik_Ionization_Penalty_Charging>
  0.0000

> <r_epik_Ionization_Penalty_Neutral>
  0.0000

> <r_epik_State_Penalty>
 -0.0000

> <r_epik_Charging_Adjusted_Penalty>
9.88443071754712e-08

> <i_epik_Tot_Q>
0

> <i_epik_Tot_abs_Q>
0

> <s_epik_Chemistry_Notes>
This compound has an ester and may undergo hydrolysis at high or low pH.

> <s_lp_Force_Field>
OPLS3e

> <r_lp_Energy>
71.391863

> <b_lp_Chiralities_Consistent>
1

> <s_lp_Variant>
sdf/inactives_sanitized.sdf:105-1

$$$$
sdf/inactives_sanitized.sdf:106
                    3D
 Schrodinger Suite 2020-1.
 71 77  0  0  1  0            999 V2000
    0.2249    0.2101   -0.2867 N   0  0  0  0  0  0
    1.6032    0.4243   -0.0584 C   0  0  0  0  0  0
    2.5445   -0.0458   -0.9799 C   0  0  0  0  0  0
    3.9018    0.0944   -0.7089 C   0  0  0  0  0  0
    4.3287    0.6920    0.4818 C   0  0  0  0  0  0
    3.3804    1.2090    1.3700 C   0  0  0  0  0  0
    2.0212    1.0718    1.1085 C   0  0  0  0  0  0
   -1.4336   -4.2456    0.1449 C   0  0  0  0  0  0
   -1.2020   -5.5217    0.6589 C   0  0  0  0  0  0
   -3.2216   -3.8298    1.7554 C   0  0  0  0  0  0
   -2.4200   -3.4062    0.6832 C   0  0  0  0  0  0
   -2.6124   -2.1206    0.1332 N   0  0  0  0  0  0
   -3.7232   -0.5270   -0.7598 C   0  0  0  0  0  0
   -3.8435   -1.7401   -0.2582 N   0  0  0  0  0  0
   -3.5362   -5.9305    3.3293 C   0  0  0  0  0  0
   -3.0041   -5.1110    2.2893 C   0  0  0  0  0  0
   -2.0037   -5.9227    1.7317 C   0  0  0  0  0  0
   -1.9558   -7.1161    2.3903 O   0  0  0  0  0  0
   -2.9335   -7.0967    3.3954 N   0  0  0  0  0  0
   -4.5489   -5.5674    4.1686 N   0  0  0  0  0  0
   -2.3914   -0.0908   -0.7006 C   0  0  0  0  0  0
   -1.6891   -1.1265   -0.1074 C   0  0  0  0  0  0
   -0.2598   -1.0199    0.1728 C   0  0  0  0  0  0
   -0.5440    1.2116   -0.9093 C   0  0  0  0  0  0
   -1.8144    1.0751   -1.1031 N   0  0  0  0  0  0
    0.4266   -1.8732    0.7439 O   0  0  0  0  0  0
   -4.9429    0.1881   -1.2960 C   0  0  0  0  0  0
    5.7751    0.7596    0.8181 C   0  0  0  0  0  0
    6.3962    2.0140    0.8674 C   0  0  0  0  0  0
    7.7477    2.1342    1.1841 C   0  0  0  0  0  0
    8.4997    0.9963    1.4616 C   0  0  0  0  0  0
    7.8973   -0.2590    1.4276 C   0  0  0  0  0  0
    6.5391   -0.3915    1.1166 C   0  0  0  0  0  0
    5.9408   -1.7994    1.1128 C   0  0  0  0  0  0
    5.6647   -2.3887    2.5151 N   0  3  2  0  0  0
    0.1106    2.5108   -1.3757 C   0  0  0  0  0  0
    5.1249   -3.8313    2.4902 C   0  0  0  0  0  0
    3.5950   -3.7014    2.4121 C   0  0  1  0  0  0
    3.2856   -2.3920    3.1524 C   0  0  0  0  0  0
    4.6102   -1.6402    3.3513 C   0  0  0  0  0  0
    3.1945   -3.6240    1.0566 O   0  0  0  0  0  0
    2.2262   -0.5409   -1.8862 H   0  0  0  0  0  0
    4.6247   -0.2944   -1.4116 H   0  0  0  0  0  0
    3.6964    1.6856    2.2868 H   0  0  0  0  0  0
    1.2977    1.4427    1.8203 H   0  0  0  0  0  0
   -0.8327   -3.9075   -0.6873 H   0  0  0  0  0  0
   -0.4404   -6.1668    0.2466 H   0  0  0  0  0  0
   -3.9832   -3.1840    2.1690 H   0  0  0  0  0  0
   -4.9935   -4.6634    4.1015 H   0  0  0  0  0  0
   -4.8865   -6.1905    4.8879 H   0  0  0  0  0  0
   -4.7054    1.1931   -1.6461 H   0  0  0  0  0  0
   -5.7175    0.2921   -0.5357 H   0  0  0  0  0  0
   -5.3855   -0.3452   -2.1376 H   0  0  0  0  0  0
    5.8269    2.9072    0.6528 H   0  0  0  0  0  0
    8.2117    3.1090    1.2132 H   0  0  0  0  0  0
    9.5481    1.0874    1.7059 H   0  0  0  0  0  0
    8.4913   -1.1335    1.6515 H   0  0  0  0  0  0
    4.9975   -1.8674    0.5786 H   0  0  0  0  0  0
    6.6287   -2.5082    0.6489 H   0  0  0  0  0  0
   -0.5951    3.1681   -1.8865 H   0  0  0  0  0  0
    0.9248    2.3115   -2.0732 H   0  0  0  0  0  0
    0.5181    3.0685   -0.5323 H   0  0  0  0  0  0
    5.6046   -4.4053    1.6955 H   0  0  0  0  0  0
    5.4648   -4.2633    3.4330 H   0  0  0  0  0  0
    3.1023   -4.5535    2.8823 H   0  0  0  0  0  0
    2.5487   -1.7769    2.6324 H   0  0  0  0  0  0
    2.8755   -2.6141    4.1384 H   0  0  0  0  0  0
    4.6073   -0.5813    3.1011 H   0  0  0  0  0  0
    4.9799   -1.7369    4.3732 H   0  0  0  0  0  0
    3.3804   -4.4646    0.6318 H   0  0  0  0  0  0
    6.5459   -2.3748    3.0092 H   0  0  0  0  0  0
  1 23  1  0  0  0
  1 24  1  0  0  0
  1  2  1  0  0  0
  2  3  2  0  0  0
  2  7  1  0  0  0
  3  4  1  0  0  0
  3 42  1  0  0  0
  4  5  2  0  0  0
  4 43  1  0  0  0
  5  6  1  0  0  0
  5 28  1  0  0  0
  6  7  2  0  0  0
  6 44  1  0  0  0
  7 45  1  0  0  0
  8 11  2  0  0  0
  8  9  1  0  0  0
  8 46  1  0  0  0
  9 17  2  0  0  0
  9 47  1  0  0  0
 10 16  2  0  0  0
 10 11  1  0  0  0
 10 48  1  0  0  0
 11 12  1  0  0  0
 12 22  1  0  0  0
 12 14  1  0  0  0
 13 27  1  0  0  0
 13 21  1  0  0  0
 13 14  2  0  0  0
 15 19  2  0  0  0
 15 20  1  0  0  0
 15 16  1  0  0  0
 16 17  1  0  0  0
 17 18  1  0  0  0
 18 19  1  0  0  0
 20 49  1  0  0  0
 20 50  1  0  0  0
 21 22  2  0  0  0
 21 25  1  0  0  0
 22 23  1  0  0  0
 23 26  2  0  0  0
 24 25  2  0  0  0
 24 36  1  0  0  0
 27 51  1  0  0  0
 27 52  1  0  0  0
 27 53  1  0  0  0
 28 29  2  0  0  0
 28 33  1  0  0  0
 29 30  1  0  0  0
 29 54  1  0  0  0
 30 31  2  0  0  0
 30 55  1  0  0  0
 31 32  1  0  0  0
 31 56  1  0  0  0
 32 33  2  0  0  0
 32 57  1  0  0  0
 33 34  1  0  0  0
 34 35  1  0  0  0
 34 58  1  0  0  0
 34 59  1  0  0  0
 35 37  1  0  0  0
 35 40  1  0  0  0
 35 71  1  0  0  0
 36 60  1  0  0  0
 36 61  1  0  0  0
 36 62  1  0  0  0
 37 38  1  0  0  0
 37 63  1  0  0  0
 37 64  1  0  0  0
 38 39  1  0  0  0
 38 41  1  0  0  0
 38 65  1  0  0  0
 39 40  1  0  0  0
 39 66  1  0  0  0
 39 67  1  0  0  0
 40 68  1  0  0  0
 40 69  1  0  0  0
 41 70  1  0  0  0
M  CHG  1  35   1
M  END
> <chembl_id>
CHEMBL386463

> <chembl_pref_name>
None

> <i_m_ct_stereo_status>
1

> <s_m_source_file>
sdf/inactives_sanitized.sdf

> <i_m_source_file_index>
106

> <i_lp_mmshare_version>
49012

> <i_f3d_flags>
0

> <s_epik_input>
W05IMl1jMW5vYyhjMTIpW2NIXVtjSF1jKFtjSF0yKS1uKG5jM1tDSDNdKWMoYzM0KWMoPU8pbihjKG40KVtDSDNdKS1jNVtjSF1bY0hdYyhbY0hdW2NIXTUpLWM2W2NIXVtjSF1bY0hdW2NIXWM2W0NIMl1ON1tDSDJdW0NASF0oW09IXSlbQ0gyXVtDSDJdNw==

> <s_epik_cmdline>
J2VwaWtfcHl0aG9uJywgJy1waHQnLCAnMC41JywgJy1waCcsICc3LjUnLCAnLW50JywgJy1tYScsICcyMDAnLCAnLWltYWUnLCAnPGluZmlsZS5tYWU+JywgJy1vbWFlJywgJzxvdXRmaWxlLm1hZT4n

> <r_epik_Ionization_Penalty>
  0.0322

> <r_epik_Ionization_Penalty_Charging>
  0.0322

> <r_epik_Ionization_Penalty_Neutral>
  0.0000

> <r_epik_State_Penalty>
  0.0267

> <r_epik_Charging_Adjusted_Penalty>
0.0588988191399952

> <i_epik_Tot_Q>
1

> <i_epik_Tot_abs_Q>
1

> <s_lp_Force_Field>
OPLS3e

> <r_lp_Energy>
86.764872

> <b_lp_Chiralities_Consistent>
1

> <s_lp_Variant>
sdf/inactives_sanitized.sdf:106-1

$$$$
sdf/inactives_sanitized.sdf:107
                    3D
 Schrodinger Suite 2020-1.
 57 60  0  0  1  0            999 V2000
   -0.2243   -1.2379    1.6539 C   0  0  2  0  0  0
    0.1108   -0.1355    0.6100 C   0  0  2  0  0  0
   -0.5642   -0.6575   -0.6787 C   0  0  0  0  0  0
   -0.5311   -2.1205   -0.6065 N   0  0  1  0  0  0
   -0.3883   -2.5214    0.7967 C   0  0  0  0  0  0
   -1.5868   -0.7850    2.2595 C   0  0  0  0  0  0
    1.6624   -0.1114    0.4868 C   0  0  0  0  0  0
    2.2850    0.8805    1.1594 N   0  0  0  0  0  0
    2.2559   -0.8854   -0.2699 O   0  0  0  0  0  0
   -2.6524   -1.0663    1.7040 O   0  0  0  0  0  0
   -1.5050   -0.1839    3.4688 N   0  0  0  0  0  0
   -2.5458    0.3077    4.2773 C   0  0  0  0  0  0
   -3.8105    0.4885    3.7953 N   0  0  0  0  0  0
   -4.4891    1.3284    5.9559 C   0  0  0  0  0  0
   -3.1930    1.1487    6.4414 C   0  0  0  0  0  0
   -4.7571    0.9873    4.6301 C   0  0  0  0  0  0
   -2.2074    0.6359    5.5954 C   0  0  0  0  0  0
   -5.7319    1.9609    6.9724 Cl  0  0  0  0  0  0
    3.6668    1.1124    1.1649 C   0  0  0  0  0  0
    4.1178    2.3818    0.7955 C   0  0  0  0  0  0
    6.4096    1.7093    1.2250 C   0  0  0  0  0  0
    5.9505    0.4428    1.6178 C   0  0  0  0  0  0
    5.4806    2.6760    0.8145 C   0  0  0  0  0  0
    4.5878    0.1447    1.5988 C   0  0  0  0  0  0
    7.7924    2.0109    1.2347 N   0  0  0  0  0  0
    8.3717    2.4625    0.0590 C   0  0  0  0  0  0
   10.4903    2.7159    1.1206 C   0  0  0  0  0  0
    9.9396    2.2736    2.2756 C   0  0  0  0  0  0
    9.6634    2.8251   -0.0676 C   0  0  0  0  0  0
    8.5209    1.9331    2.4112 C   0  0  0  0  0  0
    8.0514    1.6447    3.5142 O   0  0  0  0  0  0
    4.1751   -1.0761    2.0153 F   0  0  0  0  0  0
   -1.6181   -2.8109   -1.3070 C   0  0  0  0  0  0
   -1.6159   -2.5744   -2.8311 C   0  0  0  0  0  0
   -1.9211   -1.3258   -3.1858 F   0  0  0  0  0  0
   -2.4568   -3.3969   -3.4574 F   0  0  0  0  0  0
    0.4674   -1.3159    2.4973 H   0  0  0  0  0  0
   -0.1624    0.8856    0.8921 H   0  0  0  0  0  0
   -1.6096   -0.3446   -0.7049 H   0  0  0  0  0  0
   -0.0492   -0.3510   -1.5907 H   0  0  0  0  0  0
    0.5394   -3.0887    0.8802 H   0  0  0  0  0  0
   -1.2331   -3.1261    1.1345 H   0  0  0  0  0  0
    1.7140    1.5735    1.6203 H   0  0  0  0  0  0
   -0.5867   -0.1280    3.8843 H   0  0  0  0  0  0
   -2.9513    1.4050    7.4626 H   0  0  0  0  0  0
   -5.7462    1.1128    4.2146 H   0  0  0  0  0  0
   -1.2014    0.4978    5.9655 H   0  0  0  0  0  0
    3.4169    3.1428    0.4828 H   0  0  0  0  0  0
    6.6503   -0.3136    1.9434 H   0  0  0  0  0  0
    5.8106    3.6611    0.5166 H   0  0  0  0  0  0
    7.6859    2.4938   -0.7770 H   0  0  0  0  0  0
   11.5414    2.9616    1.0760 H   0  0  0  0  0  0
   10.5648    2.1811    3.1517 H   0  0  0  0  0  0
   10.0675    3.1665   -1.0093 H   0  0  0  0  0  0
   -1.5146   -3.8825   -1.1296 H   0  0  0  0  0  0
   -2.5805   -2.5189   -0.8830 H   0  0  0  0  0  0
   -0.6304   -2.7838   -3.2490 H   0  0  0  0  0  0
  1  2  1  0  0  0
  1  5  1  0  0  0
  1  6  1  0  0  0
  1 37  1  0  0  0
  2  3  1  0  0  0
  2  7  1  0  0  0
  2 38  1  0  0  0
  3  4  1  0  0  0
  3 39  1  0  0  0
  3 40  1  0  0  0
  4  5  1  0  0  0
  4 33  1  0  0  0
  5 41  1  0  0  0
  5 42  1  0  0  0
  6 10  2  0  0  0
  6 11  1  0  0  0
  7  8  1  0  0  0
  7  9  2  0  0  0
  8 19  1  0  0  0
  8 43  1  0  0  0
 11 12  1  0  0  0
 11 44  1  0  0  0
 12 13  2  0  0  0
 12 17  1  0  0  0
 13 16  1  0  0  0
 14 15  1  0  0  0
 14 16  2  0  0  0
 14 18  1  0  0  0
 15 17  2  0  0  0
 15 45  1  0  0  0
 16 46  1  0  0  0
 17 47  1  0  0  0
 19 20  2  0  0  0
 19 24  1  0  0  0
 20 23  1  0  0  0
 20 48  1  0  0  0
 21 22  1  0  0  0
 21 23  2  0  0  0
 21 25  1  0  0  0
 22 24  2  0  0  0
 22 49  1  0  0  0
 23 50  1  0  0  0
 24 32  1  0  0  0
 25 26  1  0  0  0
 25 30  1  0  0  0
 26 29  2  0  0  0
 26 51  1  0  0  0
 27 28  2  0  0  0
 27 29  1  0  0  0
 27 52  1  0  0  0
 28 30  1  0  0  0
 28 53  1  0  0  0
 29 54  1  0  0  0
 30 31  2  0  0  0
 33 34  1  0  0  0
 33 55  1  0  0  0
 33 56  1  0  0  0
 34 35  1  0  0  0
 34 36  1  0  0  0
 34 57  1  0  0  0
M  END
> <chembl_id>
CHEMBL1221913

> <chembl_pref_name>
None

> <i_m_ct_stereo_status>
1

> <s_m_source_file>
sdf/inactives_sanitized.sdf

> <i_m_source_file_index>
107

> <i_lp_mmshare_version>
49012

> <i_f3d_flags>
0

> <s_epik_input>
W2NIXTFbY0hdYyhDbClbY0hdbmMxW05IXUMoPU8pW0NAQEhdMltDQEhdKFtDSDJdTihbQ0gyXTIpW0NIMl1bQ0hdKEYpRilDKD1PKVtOSF1jM1tjSF1bY0hdYyhbY0hdYzNGKS1uNFtjSF1bY0hdW2NIXVtjSF1jND1P

> <s_epik_cmdline>
J2VwaWtfcHl0aG9uJywgJy1waHQnLCAnMC41JywgJy1waCcsICc3LjUnLCAnLW50JywgJy1tYScsICcyMDAnLCAnLWltYWUnLCAnPGluZmlsZS5tYWU+JywgJy1vbWFlJywgJzxvdXRmaWxlLm1hZT4n

> <r_lp_tautomer_probability>
1

> <r_epik_Ionization_Penalty>
  0.0157

> <r_epik_Ionization_Penalty_Charging>
  0.0000

> <r_epik_Ionization_Penalty_Neutral>
  0.0157

> <r_epik_State_Penalty>
  0.0123

> <r_epik_Charging_Adjusted_Penalty>
0.0123382566030983

> <i_epik_Tot_Q>
0

> <i_epik_Tot_abs_Q>
0

> <s_lp_Force_Field>
OPLS3e

> <r_lp_Energy>
68.791959

> <b_lp_Chiralities_Consistent>
1

> <s_lp_Variant>
sdf/inactives_sanitized.sdf:107-1

$$$$
sdf/inactives_sanitized.sdf:108
                    3D
 Schrodinger Suite 2020-1.
 82 86  0  0  1  0            999 V2000
   -2.0981   -0.5394    1.4158 C   0  0  1  0  0  0
   -2.5577   -1.3588    2.6578 C   0  0  0  0  0  0
   -2.6671   -1.1754    0.1148 C   0  0  0  0  0  0
   -4.2872    2.5979    2.1315 C   0  0  0  0  0  0
   -3.3803    3.6207    1.8198 C   0  0  0  0  0  0
   -2.0874    3.3291    1.4003 C   0  0  0  0  0  0
   -3.8389    1.2727    1.9985 C   0  0  0  0  0  0
   -2.5387    0.9395    1.5810 C   0  0  0  0  0  0
   -1.6586    2.0069    1.2976 C   0  0  0  0  0  0
   -0.3488    1.7920    0.8321 N   0  0  0  0  0  0
    0.0791    0.4525    0.4302 C   0  0  2  0  0  0
   -0.5446   -0.5972    1.3714 C   0  0  0  0  0  0
    1.5901    0.2745    0.3018 C   0  0  0  0  0  0
    2.1165   -0.4340   -0.7822 C   0  0  0  0  0  0
    3.4932   -0.6505   -0.9048 C   0  0  0  0  0  0
    4.3478   -0.1230    0.0706 C   0  0  0  0  0  0
    3.8390    0.5968    1.1627 C   0  0  0  0  0  0
    2.4588    0.7713    1.2798 C   0  0  0  0  0  0
   -5.6557    2.9006    2.5718 C   0  0  0  0  0  0
   -6.3133    2.0122    3.3069 N   0  3  0  0  0  0
   -6.2101    4.0568    2.2276 N   0  0  0  0  0  0
   -2.5455   -2.5591   -0.0928 C   0  0  0  0  0  0
   -3.0352   -3.1554   -1.2511 C   0  0  0  0  0  0
   -3.6514   -2.3728   -2.2219 C   0  0  0  0  0  0
   -3.7775   -0.9992   -2.0439 C   0  0  0  0  0  0
   -3.2868   -0.4043   -0.8851 C   0  0  0  0  0  0
    4.0365   -1.4280   -2.0568 C   0  0  0  0  0  0
    3.7974   -0.9316   -3.3435 C   0  0  0  0  0  0
    4.3020   -1.5681   -4.4730 C   0  0  0  0  0  0
    5.0702   -2.7326   -4.3517 C   0  0  0  0  0  0
    5.3009   -3.2428   -3.0677 C   0  0  0  0  0  0
    4.7906   -2.6205   -1.9167 C   0  0  0  0  0  0
    5.0467   -3.2694   -0.5885 C   0  0  0  0  0  0
    4.0967   -3.3309    0.2246 O   0  5  0  0  0  0
    6.1928   -3.7301   -0.3830 O   0  0  0  0  0  0
    5.6339   -3.4462   -5.5621 C   0  0  0  0  0  0
    6.0730   -4.5932   -5.4878 O   0  0  0  0  0  0
    5.6568   -2.7710   -6.7166 N   0  0  0  0  0  0
    4.6357    1.1253    2.1935 N   0  0  0  0  0  0
    5.9302    1.5056    2.1384 C   0  0  0  0  0  0
    6.5203    2.0024    3.4739 C   0  0  0  0  0  0
    6.6094    1.5105    1.1110 O   0  0  0  0  0  0
    8.0691    1.9863    3.6267 C   0  0  0  0  0  0
    8.7895    3.0483    2.7706 C   0  0  0  0  0  0
    8.6913    0.5860    3.4474 C   0  0  0  0  0  0
   -3.6356   -1.5228    2.6687 H   0  0  0  0  0  0
   -2.2946   -0.8536    3.5884 H   0  0  0  0  0  0
   -2.0901   -2.3429    2.7005 H   0  0  0  0  0  0
   -3.6644    4.6607    1.8997 H   0  0  0  0  0  0
   -1.4166    4.1425    1.1619 H   0  0  0  0  0  0
   -4.5274    0.4648    2.1991 H   0  0  0  0  0  0
    0.2010    2.5530    0.4601 H   0  0  0  0  0  0
   -0.3223    0.2753   -0.5692 H   0  0  0  0  0  0
   -0.2099   -1.5950    1.0814 H   0  0  0  0  0  0
   -0.1318   -0.4482    2.3719 H   0  0  0  0  0  0
    1.4489   -0.8399   -1.5291 H   0  0  0  0  0  0
    5.4076   -0.3066   -0.0233 H   0  0  0  0  0  0
    2.0545    1.3013    2.1309 H   0  0  0  0  0  0
   -7.2545    2.2090    3.6134 H   0  0  0  0  0  0
   -7.1506    4.2719    2.5240 H   0  0  0  0  0  0
   -5.6888    4.7135    1.6655 H   0  0  0  0  0  0
   -2.0596   -3.1867    0.6391 H   0  0  0  0  0  0
   -2.9333   -4.2208   -1.3970 H   0  0  0  0  0  0
   -4.0300   -2.8340   -3.1222 H   0  0  0  0  0  0
   -4.2510   -0.3957   -2.8043 H   0  0  0  0  0  0
   -3.3924    0.6654   -0.7889 H   0  0  0  0  0  0
    3.2210   -0.0269   -3.4743 H   0  0  0  0  0  0
    4.0855   -1.1382   -5.4403 H   0  0  0  0  0  0
    5.8797   -4.1507   -2.9591 H   0  0  0  0  0  0
    5.3061   -1.8258   -6.7599 H   0  0  0  0  0  0
    6.0311   -3.2041   -7.5479 H   0  0  0  0  0  0
    4.1503    1.2906    3.0629 H   0  0  0  0  0  0
    6.1593    3.0213    3.6205 H   0  0  0  0  0  0
    6.0883    1.4070    4.2807 H   0  0  0  0  0  0
    8.2615    2.2660    4.6641 H   0  0  0  0  0  0
    8.7352    2.8273    1.7050 H   0  0  0  0  0  0
    9.8464    3.1101    3.0325 H   0  0  0  0  0  0
    8.3599    4.0385    2.9264 H   0  0  0  0  0  0
    8.6031    0.2292    2.4210 H   0  0  0  0  0  0
    8.2081   -0.1462    4.0952 H   0  0  0  0  0  0
    9.7523    0.5921    3.6993 H   0  0  0  0  0  0
   -5.8656    1.1430    3.5583 H   0  0  0  0  0  0
  1  2  1  0  0  0
  1  3  1  0  0  0
  1 12  1  0  0  0
  1  8  1  0  0  0
  2 46  1  0  0  0
  2 47  1  0  0  0
  2 48  1  0  0  0
  3 22  2  0  0  0
  3 26  1  0  0  0
  4  5  2  0  0  0
  4  7  1  0  0  0
  4 19  1  0  0  0
  5  6  1  0  0  0
  5 49  1  0  0  0
  6  9  2  0  0  0
  6 50  1  0  0  0
  7  8  2  0  0  0
  7 51  1  0  0  0
  8  9  1  0  0  0
  9 10  1  0  0  0
 10 11  1  0  0  0
 10 52  1  0  0  0
 11 12  1  0  0  0
 11 13  1  0  0  0
 11 53  1  0  0  0
 12 54  1  0  0  0
 12 55  1  0  0  0
 13 14  2  0  0  0
 13 18  1  0  0  0
 14 15  1  0  0  0
 14 56  1  0  0  0
 15 16  2  0  0  0
 15 27  1  0  0  0
 16 17  1  0  0  0
 16 57  1  0  0  0
 17 18  2  0  0  0
 17 39  1  0  0  0
 18 58  1  0  0  0
 19 20  2  0  0  0
 19 21  1  0  0  0
 20 59  1  0  0  0
 20 82  1  0  0  0
 21 60  1  0  0  0
 21 61  1  0  0  0
 22 23  1  0  0  0
 22 62  1  0  0  0
 23 24  2  0  0  0
 23 63  1  0  0  0
 24 25  1  0  0  0
 24 64  1  0  0  0
 25 26  2  0  0  0
 25 65  1  0  0  0
 26 66  1  0  0  0
 27 28  2  0  0  0
 27 32  1  0  0  0
 28 29  1  0  0  0
 28 67  1  0  0  0
 29 30  2  0  0  0
 29 68  1  0  0  0
 30 31  1  0  0  0
 30 36  1  0  0  0
 31 32  2  0  0  0
 31 69  1  0  0  0
 32 33  1  0  0  0
 33 34  1  0  0  0
 33 35  2  0  0  0
 36 37  2  0  0  0
 36 38  1  0  0  0
 38 70  1  0  0  0
 38 71  1  0  0  0
 39 40  1  0  0  0
 39 72  1  0  0  0
 40 41  1  0  0  0
 40 42  2  0  0  0
 41 43  1  0  0  0
 41 73  1  0  0  0
 41 74  1  0  0  0
 43 44  1  0  0  0
 43 45  1  0  0  0
 43 75  1  0  0  0
 44 76  1  0  0  0
 44 77  1  0  0  0
 44 78  1  0  0  0
 45 79  1  0  0  0
 45 80  1  0  0  0
 45 81  1  0  0  0
M  CHG  2  20   1  34  -1
M  END
> <chembl_id>
CHEMBL3127463

> <chembl_pref_name>
None

> <s_m_source_file>
sdf/inactives_sanitized.sdf

> <i_m_source_file_index>
108

> <i_lp_mmshare_version>
49012

> <i_m_ct_stereo_status>
1

> <i_f3d_flags>
0

> <s_epik_input>
W2NIXTFbY0hdW2NIXVtjSF1bY0hdYzFbQ0BAXTIoW0NIM10pW0NIMl1bQ0BASF0oW05IXWMoYzIzKVtjSF1bY0hdYyhbY0hdMykvQyg9Ti9bSF0pW05IMl0pYzRbY0hdYyhbY0hdYyhbY0hdNClbTkhdQyg9TylbQ0gyXVtDSF0oW0NIM10pW0NIM10pLWM1W2NIXVtjSF1jKEMoPU8pW05IMl0pW2NIXWM1Qyg9TylbT0hd

> <s_epik_cmdline>
J2VwaWtfcHl0aG9uJywgJy1waHQnLCAnMC41JywgJy1waCcsICc3LjUnLCAnLW50JywgJy1tYScsICcyMDAnLCAnLWltYWUnLCAnPGluZmlsZS5tYWU+JywgJy1vbWFlJywgJzxvdXRmaWxlLm1hZT4n

> <r_lp_tautomer_probability>
1

> <r_epik_Ionization_Penalty>
  0.0009

> <r_epik_Ionization_Penalty_Charging>
  0.0007

> <r_epik_Ionization_Penalty_Neutral>
  0.0002

> <r_epik_State_Penalty>
 -0.0000

> <r_epik_Charging_Adjusted_Penalty>
0.000698427025067266

> <i_epik_Tot_Q>
0

> <i_epik_Tot_abs_Q>
2

> <s_epik_Chemistry_Notes>
This compound has an imine and may undergo hydrolysis.

> <s_lp_Force_Field>
OPLS3e

> <r_lp_Energy>
65.826517

> <b_lp_Chiralities_Consistent>
1

> <s_lp_Variant>
sdf/inactives_sanitized.sdf:108-1

$$$$
sdf/inactives_sanitized.sdf:109
                    3D
 Schrodinger Suite 2020-1.
 68 72  0  0  1  0            999 V2000
   -3.2898    1.7595    0.4519 C   0  0  0  0  0  0
   -2.1810    0.8852    0.2924 O   0  0  0  0  0  0
   -0.9184    1.3567    0.3275 C   0  0  0  0  0  0
   -0.6232    2.5430    0.4884 O   0  0  0  0  0  0
   -0.0465    0.2887    0.1379 N   0  0  0  0  0  0
    1.3586    0.2783    0.1321 C   0  0  0  0  0  0
    1.9710   -0.8819   -0.3387 C   0  0  0  0  0  0
    3.3586   -0.9800   -0.3752 C   0  0  0  0  0  0
    4.1710    0.0701    0.0665 C   0  0  0  0  0  0
    5.6418   -0.0888   -0.0480 C   0  0  0  0  0  0
    6.4870   -0.1517    1.0665 C   0  0  0  0  0  0
    7.8691   -0.1361    0.8609 C   0  0  0  0  0  0
    8.4303    0.0007   -0.3687 N   0  0  0  0  0  0
    7.5972    0.0609   -1.4422 C   0  0  0  0  0  0
    6.2134   -0.0672   -1.3194 C   0  0  0  0  0  0
    8.2176    0.5173   -2.7648 C   0  0  2  0  0  0
    7.4217    1.6819   -3.4456 C   0  0  0  0  0  0
    7.5006    3.0748   -2.7667 C   0  0  0  0  0  0
    6.9490    3.2329   -1.3278 C   0  0  0  0  0  0
    5.4170    3.1181   -1.1346 C   0  0  0  0  0  0
    5.0680    3.2307    0.2839 N   0  0  0  0  0  0
    4.3407    2.4300    1.0922 C   0  0  0  0  0  0
    4.2508    2.6854    2.2915 O   0  0  0  0  0  0
    3.5607    1.2555    0.5418 C   0  0  0  0  0  0
    2.1612    1.3372    0.5813 C   0  0  0  0  0  0
    8.4548   -0.6338   -3.6668 N   0  0  0  0  0  0
    7.3101   -1.2060   -4.4343 C   0  0  0  0  0  0
    7.7779   -2.0000   -5.6823 C   0  0  0  0  0  0
    8.8779   -2.9609   -5.2629 C   0  0  0  0  0  0
    9.7419   -2.5504   -4.3123 C   0  0  0  0  0  0
    9.6543   -1.3012   -3.5852 C   0  0  0  0  0  0
   10.6376   -0.8798   -2.9736 O   0  0  0  0  0  0
    9.1715   -4.1774   -6.0608 C   0  0  0  0  0  0
    9.2425   -4.1262   -7.4637 C   0  0  0  0  0  0
    9.0688   -2.9593   -8.1276 F   0  0  0  0  0  0
    9.5125   -5.2777   -8.2029 C   0  0  0  0  0  0
    9.7146   -6.4946   -7.5579 C   0  0  0  0  0  0
    9.6466   -6.5650   -6.1681 C   0  0  0  0  0  0
    9.8956   -8.0834   -5.3815 Cl  0  0  0  0  0  0
    9.3756   -5.4140   -5.4218 C   0  0  0  0  0  0
    9.2964   -5.5055   -4.0716 F   0  0  0  0  0  0
   -4.2184    1.1909    0.4032 H   0  0  0  0  0  0
   -3.3110    2.5132   -0.3366 H   0  0  0  0  0  0
   -3.2535    2.2676    1.4167 H   0  0  0  0  0  0
   -0.4813   -0.6075   -0.0254 H   0  0  0  0  0  0
    1.3761   -1.7147   -0.6863 H   0  0  0  0  0  0
    3.8073   -1.8873   -0.7539 H   0  0  0  0  0  0
    6.0825   -0.1819    2.0679 H   0  0  0  0  0  0
    8.5500   -0.1778    1.6981 H   0  0  0  0  0  0
    5.5740   -0.0036   -2.1870 H   0  0  0  0  0  0
    9.1822    0.9657   -2.5171 H   0  0  0  0  0  0
    7.8228    1.8091   -4.4527 H   0  0  0  0  0  0
    6.3749    1.4256   -3.6001 H   0  0  0  0  0  0
    8.5473    3.3824   -2.7601 H   0  0  0  0  0  0
    6.9968    3.7998   -3.4075 H   0  0  0  0  0  0
    7.4648    2.5495   -0.6573 H   0  0  0  0  0  0
    7.2472    4.2230   -0.9790 H   0  0  0  0  0  0
    4.9224    3.9168   -1.6882 H   0  0  0  0  0  0
    5.0218    2.2145   -1.5910 H   0  0  0  0  0  0
    5.4463    4.0552    0.7273 H   0  0  0  0  0  0
    1.7106    2.2343    0.9781 H   0  0  0  0  0  0
    6.8780   -1.9608   -3.7750 H   0  0  0  0  0  0
    6.5036   -0.4976   -4.6166 H   0  0  0  0  0  0
    6.9431   -2.5269   -6.1456 H   0  0  0  0  0  0
    8.1672   -1.2873   -6.4105 H   0  0  0  0  0  0
   10.5913   -3.1766   -4.0775 H   0  0  0  0  0  0
    9.5690   -5.2263   -9.2803 H   0  0  0  0  0  0
    9.9239   -7.3816   -8.1381 H   0  0  0  0  0  0
  1  2  1  0  0  0
  1 42  1  0  0  0
  1 43  1  0  0  0
  1 44  1  0  0  0
  2  3  1  0  0  0
  3  4  2  0  0  0
  3  5  1  0  0  0
  5  6  1  0  0  0
  5 45  1  0  0  0
  6  7  2  0  0  0
  6 25  1  0  0  0
  7  8  1  0  0  0
  7 46  1  0  0  0
  8  9  2  0  0  0
  8 47  1  0  0  0
  9 10  1  0  0  0
  9 24  1  0  0  0
 10 11  2  0  0  0
 10 15  1  0  0  0
 11 12  1  0  0  0
 11 48  1  0  0  0
 12 13  2  0  0  0
 12 49  1  0  0  0
 13 14  1  0  0  0
 14 15  2  0  0  0
 14 16  1  0  0  0
 15 50  1  0  0  0
 16 17  1  0  0  0
 16 26  1  0  0  0
 16 51  1  0  0  0
 17 18  1  0  0  0
 17 52  1  0  0  0
 17 53  1  0  0  0
 18 19  1  0  0  0
 18 54  1  0  0  0
 18 55  1  0  0  0
 19 20  1  0  0  0
 19 56  1  0  0  0
 19 57  1  0  0  0
 20 21  1  0  0  0
 20 58  1  0  0  0
 20 59  1  0  0  0
 21 22  1  0  0  0
 21 60  1  0  0  0
 22 23  2  0  0  0
 22 24  1  0  0  0
 24 25  2  0  0  0
 25 61  1  0  0  0
 26 27  1  0  0  0
 26 31  1  0  0  0
 27 28  1  0  0  0
 27 62  1  0  0  0
 27 63  1  0  0  0
 28 29  1  0  0  0
 28 64  1  0  0  0
 28 65  1  0  0  0
 29 30  2  0  0  0
 29 33  1  0  0  0
 30 31  1  0  0  0
 30 66  1  0  0  0
 31 32  2  0  0  0
 33 34  2  0  0  0
 33 40  1  0  0  0
 34 35  1  0  0  0
 34 36  1  0  0  0
 36 37  2  0  0  0
 36 67  1  0  0  0
 37 38  1  0  0  0
 37 68  1  0  0  0
 38 39  1  0  0  0
 38 40  2  0  0  0
 40 41  1  0  0  0
M  END
> <chembl_id>
CHEMBL3916100

> <chembl_pref_name>
None

> <i_m_ct_stereo_status>
1

> <s_m_source_file>
sdf/inactives_sanitized.sdf

> <i_m_source_file_index>
109

> <i_lp_mmshare_version>
49012

> <i_f3d_flags>
0

> <s_epik_input>
W0NIM11PQyg9TylbTkhdYyhbY0hdW2NIXTEpW2NIXWMyQyg9TylbTkhdW0NIMl1bQ0gyXVtDSDJdW0NIMl1bQ0BASF0oYyhbY0hdMyluW2NIXVtjSF1jM2MxMilONFtDSDJdW0NIMl1DKD1bQ0hdQzQ9TyljNWMoRilbY0hdW2NIXWMoQ2wpYzVG

> <s_epik_cmdline>
J2VwaWtfcHl0aG9uJywgJy1waHQnLCAnMC41JywgJy1waCcsICc3LjUnLCAnLW50JywgJy1tYScsICcyMDAnLCAnLWltYWUnLCAnPGluZmlsZS5tYWU+JywgJy1vbWFlJywgJzxvdXRmaWxlLm1hZT4n

> <r_lp_tautomer_probability>
1

> <r_epik_Ionization_Penalty>
  0.0001

> <r_epik_Ionization_Penalty_Charging>
  0.0000

> <r_epik_Ionization_Penalty_Neutral>
  0.0001

> <r_epik_State_Penalty>
 -0.0000

> <r_epik_Charging_Adjusted_Penalty>
0

> <i_epik_Tot_Q>
0

> <i_epik_Tot_abs_Q>
0

> <s_epik_Chemistry_Notes>
This compound has an ester and may undergo hydrolysis at high or low pH.

> <s_lp_Force_Field>
OPLS3e

> <r_lp_Energy>
96.799011

> <b_lp_Chiralities_Consistent>
1

> <s_lp_Variant>
sdf/inactives_sanitized.sdf:109-1

$$$$
sdf/inactives_sanitized.sdf:110
                    3D
 Schrodinger Suite 2020-1.
 71 75  0  0  1  0            999 V2000
  -11.1646   -4.3355   -2.6417 C   0  0  0  0  0  0
   -9.8145   -4.4490   -2.2130 O   0  0  0  0  0  0
   -8.8617   -3.6332   -2.7074 C   0  0  0  0  0  0
   -9.0667   -2.7522   -3.5454 O   0  0  0  0  0  0
   -7.6471   -3.9737   -2.1199 N   0  0  0  0  0  0
   -6.3812   -3.3872   -2.2851 C   0  0  0  0  0  0
   -5.3029   -4.0685   -1.7193 C   0  0  0  0  0  0
   -4.0095   -3.5639   -1.8323 C   0  0  0  0  0  0
   -3.7591   -2.3661   -2.5100 C   0  0  0  0  0  0
   -4.8524   -1.6572   -3.0553 C   0  0  0  0  0  0
   -4.7133   -0.4490   -3.7578 N   0  0  0  0  0  0
   -4.4151    0.7739   -3.2617 C   0  0  0  0  0  0
   -4.4005    1.7417   -4.0216 O   0  0  0  0  0  0
   -4.0879    1.0048   -1.7621 C   0  0  2  0  0  0
   -5.2009    1.8209   -1.0731 C   0  0  0  0  0  0
   -2.6910    1.6738   -1.5982 C   0  0  0  0  0  0
   -2.0736    1.5668   -0.1783 C   0  0  0  0  0  0
   -0.5267    1.4263   -0.1496 C   0  0  0  0  0  0
    0.0287   -0.0302   -0.2676 C   0  0  2  0  0  0
    1.5052   -0.1123   -0.1365 N   0  0  0  0  0  0
    2.3636    0.9112   -0.8052 C   0  0  0  0  0  0
    3.7784    0.3802   -1.1668 C   0  0  0  0  0  0
    4.3390   -0.4037    0.0065 C   0  0  0  0  0  0
    3.4808   -1.0709    0.8005 C   0  0  0  0  0  0
    2.0515   -1.1415    0.5908 C   0  0  0  0  0  0
    1.4061   -2.0871    1.0470 O   0  0  0  0  0  0
    5.7724   -0.3993    0.2882 C   0  0  0  0  0  0
    6.4209   -0.3645    1.5225 C   0  0  0  0  0  0
    7.7366   -0.3663    1.4195 N   0  0  0  0  0  0
    7.9567   -0.4086    0.1309 C   0  0  0  0  0  0
    6.8089   -0.4216   -0.6236 N   0  0  0  0  0  0
    6.7372   -0.5222   -2.0732 C   0  0  0  0  0  0
   -0.5151   -0.7587   -1.5000 C   0  0  0  0  0  0
   -1.7320   -1.4368   -1.4093 C   0  0  0  0  0  0
   -2.3657   -1.8605   -2.5802 C   0  0  0  0  0  0
   -1.6905   -1.7114   -3.7978 C   0  0  0  0  0  0
   -0.4285   -1.1130   -3.7992 C   0  0  0  0  0  0
    0.1554   -0.6201   -2.6772 N   0  0  0  0  0  0
   -6.1474   -2.1765   -2.9544 C   0  0  0  0  0  0
  -11.7808   -5.0672   -2.1193 H   0  0  0  0  0  0
  -11.2515   -4.5213   -3.7133 H   0  0  0  0  0  0
  -11.5624   -3.3422   -2.4282 H   0  0  0  0  0  0
   -7.6738   -4.7560   -1.4825 H   0  0  0  0  0  0
   -5.4583   -4.9984   -1.1908 H   0  0  0  0  0  0
   -3.1924   -4.1144   -1.3884 H   0  0  0  0  0  0
   -4.9854   -0.4852   -4.7294 H   0  0  0  0  0  0
   -4.0603    0.0420   -1.2572 H   0  0  0  0  0  0
   -6.1709    1.3299   -1.1662 H   0  0  0  0  0  0
   -5.2964    2.8196   -1.5020 H   0  0  0  0  0  0
   -5.0013    1.9373   -0.0074 H   0  0  0  0  0  0
   -2.0007    1.2404   -2.3210 H   0  0  0  0  0  0
   -2.7432    2.7247   -1.8889 H   0  0  0  0  0  0
   -2.3605    2.4589    0.3801 H   0  0  0  0  0  0
   -2.5146    0.7381    0.3766 H   0  0  0  0  0  0
   -0.0993    2.0754   -0.9141 H   0  0  0  0  0  0
   -0.1781    1.8316    0.8015 H   0  0  0  0  0  0
   -0.3984   -0.5511    0.5919 H   0  0  0  0  0  0
    1.8558    1.4005   -1.6361 H   0  0  0  0  0  0
    2.5117    1.6938   -0.0598 H   0  0  0  0  0  0
    3.6793   -0.2900   -2.0217 H   0  0  0  0  0  0
    4.4344    1.1973   -1.4677 H   0  0  0  0  0  0
    3.8695   -1.6262    1.6427 H   0  0  0  0  0  0
    5.9369   -0.3354    2.4880 H   0  0  0  0  0  0
    8.9225   -0.4375   -0.3519 H   0  0  0  0  0  0
    7.6928   -0.8665   -2.4708 H   0  0  0  0  0  0
    6.5226    0.4613   -2.4912 H   0  0  0  0  0  0
    5.9550   -1.2261   -2.3588 H   0  0  0  0  0  0
   -2.2412   -1.5149   -0.4593 H   0  0  0  0  0  0
   -2.1427   -2.0336   -4.7245 H   0  0  0  0  0  0
    0.1177   -0.9835   -4.7218 H   0  0  0  0  0  0
   -6.9594   -1.6131   -3.3872 H   0  0  0  0  0  0
  1  2  1  0  0  0
  1 40  1  0  0  0
  1 41  1  0  0  0
  1 42  1  0  0  0
  2  3  1  0  0  0
  3  4  2  0  0  0
  3  5  1  0  0  0
  5  6  1  0  0  0
  5 43  1  0  0  0
  6  7  2  0  0  0
  6 39  1  0  0  0
  7  8  1  0  0  0
  7 44  1  0  0  0
  8  9  2  0  0  0
  8 45  1  0  0  0
  9 10  1  0  0  0
  9 35  1  0  0  0
 10 11  1  0  0  0
 10 39  2  0  0  0
 11 12  1  0  0  0
 11 46  1  0  0  0
 12 13  2  0  0  0
 12 14  1  0  0  0
 14 15  1  0  0  0
 14 16  1  0  0  0
 14 47  1  0  0  0
 15 48  1  0  0  0
 15 49  1  0  0  0
 15 50  1  0  0  0
 16 17  1  0  0  0
 16 51  1  0  0  0
 16 52  1  0  0  0
 17 18  1  0  0  0
 17 53  1  0  0  0
 17 54  1  0  0  0
 18 19  1  0  0  0
 18 55  1  0  0  0
 18 56  1  0  0  0
 19 20  1  0  0  0
 19 33  1  0  0  0
 19 57  1  0  0  0
 20 21  1  0  0  0
 20 25  1  0  0  0
 21 22  1  0  0  0
 21 58  1  0  0  0
 21 59  1  0  0  0
 22 23  1  0  0  0
 22 60  1  0  0  0
 22 61  1  0  0  0
 23 24  2  0  0  0
 23 27  1  0  0  0
 24 25  1  0  0  0
 24 62  1  0  0  0
 25 26  2  0  0  0
 27 28  2  0  0  0
 27 31  1  0  0  0
 28 29  1  0  0  0
 28 63  1  0  0  0
 29 30  2  0  0  0
 30 31  1  0  0  0
 30 64  1  0  0  0
 31 32  1  0  0  0
 32 65  1  0  0  0
 32 66  1  0  0  0
 32 67  1  0  0  0
 33 34  1  0  0  0
 33 38  2  0  0  0
 34 35  2  0  0  0
 34 68  1  0  0  0
 35 36  1  0  0  0
 36 37  2  0  0  0
 36 69  1  0  0  0
 37 38  1  0  0  0
 37 70  1  0  0  0
 39 71  1  0  0  0
M  END
> <chembl_id>
CHEMBL4113295

> <chembl_pref_name>
None

> <i_m_ct_stereo_status>
1

> <s_m_source_file>
sdf/inactives_sanitized.sdf

> <i_m_source_file_index>
110

> <i_lp_mmshare_version>
49012

> <i_f3d_flags>
0

> <s_epik_input>
W0NIM11PQyg9TylbTkhdYyhbY0hdW2NIXTEpW2NIXWMoYzEyKVtOSF1DKD1PKVtDQEhdKFtDSDNdKVtDSDJdW0NIMl1bQ0gyXVtDQEBIXShjM1tjSF1jMltjSF1bY0hdbjMpTjRbQ0gyXVtDSDJdQyg9W0NIXUM0PU8pYzVbY0hdbltjSF1uNVtDSDNd

> <s_epik_cmdline>
J2VwaWtfcHl0aG9uJywgJy1waHQnLCAnMC41JywgJy1waCcsICc3LjUnLCAnLW50JywgJy1tYScsICcyMDAnLCAnLWltYWUnLCAnPGluZmlsZS5tYWU+JywgJy1vbWFlJywgJzxvdXRmaWxlLm1hZT4n

> <r_epik_Ionization_Penalty>
  0.0854

> <r_epik_Ionization_Penalty_Charging>
  0.0853

> <r_epik_Ionization_Penalty_Neutral>
  0.0001

> <r_epik_State_Penalty>
  0.0759

> <r_epik_Charging_Adjusted_Penalty>
0.161188378118299

> <i_epik_Tot_Q>
0

> <i_epik_Tot_abs_Q>
0

> <s_epik_Chemistry_Notes>
This compound has an ester and may undergo hydrolysis at high or low pH.

> <s_lp_Force_Field>
OPLS3e

> <r_lp_Energy>
80.211388

> <b_lp_Chiralities_Consistent>
1

> <s_lp_Variant>
sdf/inactives_sanitized.sdf:110-1

$$$$
sdf/inactives_sanitized.sdf:111
                    3D
 Schrodinger Suite 2020-1.
 81 86  0  0  1  0            999 V2000
  -10.7886   -4.7178   -2.4532 C   0  0  0  0  0  0
   -9.4046   -4.8368   -2.1531 O   0  0  0  0  0  0
   -8.5388   -3.8564   -2.4809 C   0  0  0  0  0  0
   -8.8588   -2.8048   -3.0390 O   0  0  0  0  0  0
   -7.2654   -4.2456   -2.0765 N   0  0  0  0  0  0
   -6.0361   -3.5810   -2.2251 C   0  0  0  0  0  0
   -4.9353   -4.1699   -1.6021 C   0  0  0  0  0  0
   -3.6723   -3.5913   -1.7024 C   0  0  0  0  0  0
   -3.4729   -2.4147   -2.4319 C   0  0  0  0  0  0
   -4.5889   -1.8038   -3.0460 C   0  0  0  0  0  0
   -4.4995   -0.6337   -3.8178 N   0  0  0  0  0  0
   -4.2831    0.6329   -3.3943 C   0  0  0  0  0  0
   -4.3077    1.5502   -4.2142 O   0  0  0  0  0  0
   -4.0040    0.9770   -1.9067 C   0  0  2  0  0  0
   -5.1781    1.7670   -1.2936 C   0  0  0  0  0  0
   -2.6529    1.7388   -1.7614 C   0  0  0  0  0  0
   -2.0646    1.7740   -0.3255 C   0  0  0  0  0  0
   -0.5134    1.7082   -0.2578 C   0  0  0  0  0  0
    0.0943    0.2701   -0.2205 C   0  0  2  0  0  0
    1.5606    0.2329    0.0217 N   0  0  0  0  0  0
    2.4630    1.2053   -0.6640 C   0  0  0  0  0  0
    3.8069    1.3960    0.0887 C   0  0  0  0  0  0
    4.3812    0.0352    0.4446 C   0  0  0  0  0  0
    3.5235   -0.9754    0.6857 C   0  0  0  0  0  0
    2.0805   -0.8660    0.6657 C   0  0  0  0  0  0
    1.3977   -1.7129    1.2454 O   0  0  0  0  0  0
    5.8351   -0.1096    0.5238 C   0  0  0  0  0  0
    6.7611    0.8482    0.9358 C   0  0  0  0  0  0
    8.0081    0.4203    0.8985 N   0  0  0  0  0  0
    7.9121   -0.8038    0.4508 C   0  0  0  0  0  0
    6.6217   -1.1982    0.1897 N   0  0  0  0  0  0
    6.2245   -2.5053   -0.3335 C   0  0  0  0  0  0
    6.0368   -3.6236    0.6954 C   0  0  0  0  0  0
    5.7007   -4.8979    0.2294 C   0  0  0  0  0  0
    5.5160   -5.9478    1.1252 C   0  0  0  0  0  0
    5.6660   -5.7235    2.4912 C   0  0  0  0  0  0
    5.9993   -4.4588    2.9688 C   0  0  0  0  0  0
    6.1846   -3.4090    2.0732 C   0  0  0  0  0  0
   -0.3600   -0.5665   -1.4200 C   0  0  0  0  0  0
   -1.5415   -1.3041   -1.3272 C   0  0  0  0  0  0
   -2.1093   -1.8318   -2.4895 C   0  0  0  0  0  0
   -1.4007   -1.7161   -3.6917 C   0  0  0  0  0  0
   -0.1742   -1.0474   -3.6891 C   0  0  0  0  0  0
    0.3426   -0.4569   -2.5809 N   0  0  0  0  0  0
   -5.8530   -2.3962   -2.9542 C   0  0  0  0  0  0
  -11.3181   -5.6082   -2.1144 H   0  0  0  0  0  0
  -10.9497   -4.6161   -3.5275 H   0  0  0  0  0  0
  -11.2252   -3.8521   -1.9532 H   0  0  0  0  0  0
   -7.2109   -5.1378   -1.6074 H   0  0  0  0  0  0
   -5.0495   -5.0827   -1.0346 H   0  0  0  0  0  0
   -2.8374   -4.0685   -1.2092 H   0  0  0  0  0  0
   -4.7498   -0.7432   -4.7897 H   0  0  0  0  0  0
   -3.9317    0.0517   -1.3399 H   0  0  0  0  0  0
   -6.1158    1.2152   -1.3762 H   0  0  0  0  0  0
   -5.3201    2.7308   -1.7852 H   0  0  0  0  0  0
   -5.0117    1.9587   -0.2332 H   0  0  0  0  0  0
   -1.9205    1.2957   -2.4355 H   0  0  0  0  0  0
   -2.7592    2.7611   -2.1296 H   0  0  0  0  0  0
   -2.4034    2.6930    0.1547 H   0  0  0  0  0  0
   -2.4814    0.9719    0.2848 H   0  0  0  0  0  0
   -0.1043    2.2889   -1.0846 H   0  0  0  0  0  0
   -0.1980    2.2243    0.6504 H   0  0  0  0  0  0
   -0.3706   -0.1863    0.6558 H   0  0  0  0  0  0
    2.7454    0.7152   -1.5974 H   0  0  0  0  0  0
    1.9796    2.1302   -0.9703 H   0  0  0  0  0  0
    4.5037    1.9886   -0.5054 H   0  0  0  0  0  0
    3.6127    1.9514    1.0073 H   0  0  0  0  0  0
    3.9131   -1.9416    0.9644 H   0  0  0  0  0  0
    6.5264    1.8482    1.2704 H   0  0  0  0  0  0
    8.7308   -1.4870    0.2772 H   0  0  0  0  0  0
    5.3092   -2.3814   -0.9136 H   0  0  0  0  0  0
    6.9891   -2.8165   -1.0472 H   0  0  0  0  0  0
    5.5813   -5.0767   -0.8293 H   0  0  0  0  0  0
    5.2567   -6.9313    0.7619 H   0  0  0  0  0  0
    5.5217   -6.5370    3.1867 H   0  0  0  0  0  0
    6.1127   -4.2925    4.0299 H   0  0  0  0  0  0
    6.4388   -2.4344    2.4626 H   0  0  0  0  0  0
   -2.0795   -1.3530   -0.3911 H   0  0  0  0  0  0
   -1.8013   -2.1179   -4.6111 H   0  0  0  0  0  0
    0.3951   -0.9406   -4.6005 H   0  0  0  0  0  0
   -6.6781   -1.9182   -3.4585 H   0  0  0  0  0  0
  1  2  1  0  0  0
  1 46  1  0  0  0
  1 47  1  0  0  0
  1 48  1  0  0  0
  2  3  1  0  0  0
  3  4  2  0  0  0
  3  5  1  0  0  0
  5  6  1  0  0  0
  5 49  1  0  0  0
  6  7  2  0  0  0
  6 45  1  0  0  0
  7  8  1  0  0  0
  7 50  1  0  0  0
  8  9  2  0  0  0
  8 51  1  0  0  0
  9 10  1  0  0  0
  9 41  1  0  0  0
 10 11  1  0  0  0
 10 45  2  0  0  0
 11 12  1  0  0  0
 11 52  1  0  0  0
 12 13  2  0  0  0
 12 14  1  0  0  0
 14 15  1  0  0  0
 14 16  1  0  0  0
 14 53  1  0  0  0
 15 54  1  0  0  0
 15 55  1  0  0  0
 15 56  1  0  0  0
 16 17  1  0  0  0
 16 57  1  0  0  0
 16 58  1  0  0  0
 17 18  1  0  0  0
 17 59  1  0  0  0
 17 60  1  0  0  0
 18 19  1  0  0  0
 18 61  1  0  0  0
 18 62  1  0  0  0
 19 20  1  0  0  0
 19 39  1  0  0  0
 19 63  1  0  0  0
 20 21  1  0  0  0
 20 25  1  0  0  0
 21 22  1  0  0  0
 21 64  1  0  0  0
 21 65  1  0  0  0
 22 23  1  0  0  0
 22 66  1  0  0  0
 22 67  1  0  0  0
 23 24  2  0  0  0
 23 27  1  0  0  0
 24 25  1  0  0  0
 24 68  1  0  0  0
 25 26  2  0  0  0
 27 28  2  0  0  0
 27 31  1  0  0  0
 28 29  1  0  0  0
 28 69  1  0  0  0
 29 30  2  0  0  0
 30 31  1  0  0  0
 30 70  1  0  0  0
 31 32  1  0  0  0
 32 33  1  0  0  0
 32 71  1  0  0  0
 32 72  1  0  0  0
 33 34  2  0  0  0
 33 38  1  0  0  0
 34 35  1  0  0  0
 34 73  1  0  0  0
 35 36  2  0  0  0
 35 74  1  0  0  0
 36 37  1  0  0  0
 36 75  1  0  0  0
 37 38  2  0  0  0
 37 76  1  0  0  0
 38 77  1  0  0  0
 39 40  1  0  0  0
 39 44  2  0  0  0
 40 41  2  0  0  0
 40 78  1  0  0  0
 41 42  1  0  0  0
 42 43  2  0  0  0
 42 79  1  0  0  0
 43 44  1  0  0  0
 43 80  1  0  0  0
 45 81  1  0  0  0
M  END
> <chembl_id>
CHEMBL4109472

> <chembl_pref_name>
None

> <i_m_ct_stereo_status>
1

> <s_m_source_file>
sdf/inactives_sanitized.sdf

> <i_m_source_file_index>
111

> <i_lp_mmshare_version>
49012

> <i_f3d_flags>
0

> <s_epik_input>
W0NIM11PQyg9TylbTkhdYyhbY0hdW2NIXTEpW2NIXWMoYzEyKVtOSF1DKD1PKVtDQEhdKFtDSDNdKVtDSDJdW0NIMl1bQ0gyXVtDQEBIXShjM1tjSF1jMltjSF1bY0hdbjMpTjRbQ0gyXVtDSDJdQyg9W0NIXUM0PU8pYzVbY0hdbltjSF1uNVtDSDJdYzZbY0hdW2NIXVtjSF1bY0hdW2NIXTY=

> <s_epik_cmdline>
J2VwaWtfcHl0aG9uJywgJy1waHQnLCAnMC41JywgJy1waCcsICc3LjUnLCAnLW50JywgJy1tYScsICcyMDAnLCAnLWltYWUnLCAnPGluZmlsZS5tYWU+JywgJy1vbWFlJywgJzxvdXRmaWxlLm1hZT4n

> <r_epik_Ionization_Penalty>
  0.0375

> <r_epik_Ionization_Penalty_Charging>
  0.0374

> <r_epik_Ionization_Penalty_Neutral>
  0.0001

> <r_epik_State_Penalty>
  0.0313

> <r_epik_Charging_Adjusted_Penalty>
0.068694509916007

> <i_epik_Tot_Q>
0

> <i_epik_Tot_abs_Q>
0

> <s_epik_Chemistry_Notes>
This compound has an ester and may undergo hydrolysis at high or low pH.

> <s_lp_Force_Field>
OPLS3e

> <r_lp_Energy>
88.27879

> <b_lp_Chiralities_Consistent>
1

> <s_lp_Variant>
sdf/inactives_sanitized.sdf:111-1

$$$$
sdf/inactives_sanitized.sdf:112
                    3D
 Schrodinger Suite 2020-1.
 64 67  0  0  1  0            999 V2000
    2.0010   -1.4155   -0.7142 C   0  0  0  0  0  0
    2.7401   -1.2548   -1.9425 C   0  0  0  0  0  0
    0.0219   -0.1331    0.2409 C   0  0  0  0  0  0
    1.5542   -0.3063    0.2358 C   0  0  1  0  0  0
    1.8176   -2.7826   -0.5769 C   0  0  0  0  0  0
   -2.0990    3.0294    0.3029 C   0  0  2  0  0  0
    2.3802   -3.4520   -1.6304 N   0  0  0  0  0  0
   -0.4420    1.1123    0.0279 N   0  0  0  0  0  0
    3.2461   -0.1426   -2.6358 C   0  0  0  0  0  0
   -1.8545    1.5143    0.0040 C   0  0  2  0  0  0
   -1.4671    3.5004    1.6335 C   0  0  0  0  0  0
    4.4858    0.8454   -4.5599 C   0  0  0  0  0  0
    3.9522   -0.3126   -3.8369 C   0  0  0  0  0  0
    2.9623   -2.5516   -2.4927 C   0  0  0  0  0  0
    5.5889    0.7075   -5.2866 N   0  3  0  0  0  0
    2.0877   -0.5137    1.6773 C   0  0  0  0  0  0
   -0.7132   -1.0988    0.4582 O   0  0  0  0  0  0
   -1.2114    2.7213    2.5559 O   0  0  0  0  0  0
    4.1388   -1.6100   -4.3327 C   0  0  0  0  0  0
    3.6571   -2.7473   -3.6874 C   0  0  0  0  0  0
    3.8556    2.0112   -4.4741 N   0  0  0  0  0  0
   -1.2290    4.8298    1.6390 O   0  0  0  0  0  0
    3.6093   -0.4926    1.7679 C   0  0  0  0  0  0
   -3.6105    3.3670    0.3248 C   0  0  0  0  0  0
   -2.5945    1.0733   -1.2873 C   0  0  0  0  0  0
   -0.6443    5.4536    2.7732 C   0  0  0  0  0  0
    4.3239   -1.6906    1.8543 C   0  0  0  0  0  0
    4.2879    0.7291    1.7538 C   0  0  0  0  0  0
   -4.2708    2.9947   -1.0126 C   0  0  0  0  0  0
   -4.0768    1.5007   -1.3256 C   0  0  0  0  0  0
    5.6783    0.7527    1.8237 C   0  0  0  0  0  0
    5.7142   -1.6663    1.9238 C   0  0  0  0  0  0
    6.3849   -0.4451    1.9083 C   0  0  0  0  0  0
    1.9825    0.6356   -0.1131 H   0  0  0  0  0  0
    1.3199   -3.3424    0.2020 H   0  0  0  0  0  0
   -1.6277    3.6090   -0.4921 H   0  0  0  0  0  0
    2.3503   -4.4581   -1.7142 H   0  0  0  0  0  0
    0.2261    1.8416   -0.1730 H   0  0  0  0  0  0
    3.0999    0.8487   -2.2336 H   0  0  0  0  0  0
   -2.3341    0.9711    0.8237 H   0  0  0  0  0  0
    5.9644    1.4986   -5.7885 H   0  0  0  0  0  0
    1.7077    0.2691    2.3377 H   0  0  0  0  0  0
    1.7059   -1.4443    2.1027 H   0  0  0  0  0  0
    4.6729   -1.7487   -5.2612 H   0  0  0  0  0  0
    3.8203   -3.7324   -4.0997 H   0  0  0  0  0  0
    4.2119    2.8143   -4.9714 H   0  0  0  0  0  0
    3.0157    2.0861   -3.9190 H   0  0  0  0  0  0
   -4.1179    2.8449    1.1390 H   0  0  0  0  0  0
   -3.7620    4.4375    0.4765 H   0  0  0  0  0  0
   -2.0928    1.5139   -2.1503 H   0  0  0  0  0  0
   -2.5344   -0.0091   -1.4102 H   0  0  0  0  0  0
   -0.5619    6.5270    2.6034 H   0  0  0  0  0  0
    0.3558    5.0613    2.9631 H   0  0  0  0  0  0
   -1.2534    5.2971    3.6650 H   0  0  0  0  0  0
    3.8056   -2.6384    1.8633 H   0  0  0  0  0  0
    3.7399    1.6578    1.6856 H   0  0  0  0  0  0
   -3.8462    3.5980   -1.8165 H   0  0  0  0  0  0
   -5.3351    3.2314   -0.9812 H   0  0  0  0  0  0
   -4.6383    0.9074   -0.6021 H   0  0  0  0  0  0
   -4.5038    1.2678   -2.3016 H   0  0  0  0  0  0
    6.2059    1.6949    1.8132 H   0  0  0  0  0  0
    6.2699   -2.5900    1.9898 H   0  0  0  0  0  0
    7.4634   -0.4269    1.9631 H   0  0  0  0  0  0
    6.0509   -0.1892   -5.3291 H   0  0  0  0  0  0
  1  2  1  0  0  0
  1  4  1  0  0  0
  1  5  2  0  0  0
  2  9  2  0  0  0
  2 14  1  0  0  0
  3  4  1  0  0  0
  3  8  1  0  0  0
  3 17  2  0  0  0
  4 16  1  0  0  0
  4 34  1  0  0  0
  5  7  1  0  0  0
  5 35  1  0  0  0
  6 10  1  0  0  0
  6 11  1  0  0  0
  6 24  1  0  0  0
  6 36  1  0  0  0
  7 14  1  0  0  0
  7 37  1  0  0  0
  8 10  1  0  0  0
  8 38  1  0  0  0
  9 13  1  0  0  0
  9 39  1  0  0  0
 10 25  1  0  0  0
 10 40  1  0  0  0
 11 18  2  0  0  0
 11 22  1  0  0  0
 12 13  1  0  0  0
 12 15  2  0  0  0
 12 21  1  0  0  0
 13 19  2  0  0  0
 14 20  2  0  0  0
 15 41  1  0  0  0
 15 64  1  0  0  0
 16 23  1  0  0  0
 16 42  1  0  0  0
 16 43  1  0  0  0
 19 20  1  0  0  0
 19 44  1  0  0  0
 20 45  1  0  0  0
 21 46  1  0  0  0
 21 47  1  0  0  0
 22 26  1  0  0  0
 23 27  2  0  0  0
 23 28  1  0  0  0
 24 29  1  0  0  0
 24 48  1  0  0  0
 24 49  1  0  0  0
 25 30  1  0  0  0
 25 50  1  0  0  0
 25 51  1  0  0  0
 26 52  1  0  0  0
 26 53  1  0  0  0
 26 54  1  0  0  0
 27 32  1  0  0  0
 27 55  1  0  0  0
 28 31  2  0  0  0
 28 56  1  0  0  0
 29 30  1  0  0  0
 29 57  1  0  0  0
 29 58  1  0  0  0
 30 59  1  0  0  0
 30 60  1  0  0  0
 31 33  1  0  0  0
 31 61  1  0  0  0
 32 33  2  0  0  0
 32 62  1  0  0  0
 33 63  1  0  0  0
M  CHG  1  15   1
M  END
> <chembl_id>
CHEMBL183398

> <chembl_pref_name>
None

> <i_m_ct_stereo_status>
1

> <s_m_source_file>
sdf/inactives_sanitized.sdf

> <i_m_source_file_index>
112

> <i_lp_mmshare_version>
49012

> <i_f3d_flags>
0

> <s_epik_input>
W0NIMl0xW0NIMl1bQ0gyXVtDSDJdW0NASF0oW0NAQEhdMUMoPU8pT1tDSDNdKVtOSF1DKD1PKVtDQEBIXShbQ0gyXWMyW2NIXVtjSF1bY0hdW2NIXVtjSF0yKWMzW2NIXVtuSF1jKGMzNClbY0hdW2NIXWMoW2NIXTQpL0MoPU4vW0hdKVtOSDJd

> <s_epik_cmdline>
J2VwaWtfcHl0aG9uJywgJy1waHQnLCAnMC41JywgJy1waCcsICc3LjUnLCAnLW50JywgJy1tYScsICcyMDAnLCAnLWltYWUnLCAnPGluZmlsZS5tYWU+JywgJy1vbWFlJywgJzxvdXRmaWxlLm1hZT4n

> <r_lp_tautomer_probability>
1

> <r_epik_Ionization_Penalty>
  0.0010

> <r_epik_Ionization_Penalty_Charging>
  0.0010

> <r_epik_Ionization_Penalty_Neutral>
  0.0000

> <r_epik_State_Penalty>
 -0.0000

> <r_epik_Charging_Adjusted_Penalty>
0.000984797499885888

> <i_epik_Tot_Q>
1

> <i_epik_Tot_abs_Q>
1

> <s_epik_Chemistry_Notes>
This compound has an ester and may undergo hydrolysis at high or low pH. This compound has an imine and may undergo hydrolysis.

> <s_lp_Force_Field>
OPLS3e

> <r_lp_Energy>
32.038923

> <b_lp_Chiralities_Consistent>
1

> <s_lp_Variant>
sdf/inactives_sanitized.sdf:112-1

$$$$
sdf/inactives_sanitized.sdf:113
                    3D
 Schrodinger Suite 2020-1.
 34 35  0  0  1  0            999 V2000
   -0.7141    1.2729    0.2113 C   0  0  0  0  0  0
   -0.2189   -0.1588   -0.0200 C   0  0  0  0  0  0
   -1.8300    1.6198   -0.1792 O   0  0  0  0  0  0
    0.1747    2.0577    0.8639 O   0  0  0  0  0  0
    1.2051   -0.2229    0.0143 O   0  0  0  0  0  0
    3.9184   -2.6831   -0.1177 C   0  0  0  0  0  0
    3.2199   -1.4437   -0.0256 C   0  0  0  0  0  0
    4.1182   -0.3468    0.1184 C   0  0  0  0  0  0
    5.4553   -0.7138    0.1447 C   0  0  0  0  0  0
    5.6561   -2.4534   -0.0210 S   0  0  0  0  0  0
    1.8110   -1.4595   -0.0856 C   0  0  0  0  0  0
    1.1448   -2.6848   -0.2373 C   0  0  0  0  0  0
    1.8503   -3.8797   -0.3257 C   0  0  0  0  0  0
    3.2402   -3.9010   -0.2673 C   0  0  0  0  0  0
    6.5486    0.1232    0.2601 C   0  0  0  0  0  0
    7.6080   -0.2856    0.9464 N   0  0  0  0  0  0
    6.4981    1.3177   -0.3157 N   0  3  0  0  0  0
   -0.1345    3.4128    1.1605 C   0  0  0  0  0  0
    1.0238    4.0383    1.9438 C   0  0  0  0  0  0
   -0.6234   -0.7776    0.7820 H   0  0  0  0  0  0
   -0.6074   -0.5294   -0.9696 H   0  0  0  0  0  0
    3.7829    0.6764    0.2042 H   0  0  0  0  0  0
    0.0669   -2.7254   -0.2886 H   0  0  0  0  0  0
    1.3088   -4.8074   -0.4419 H   0  0  0  0  0  0
    3.7781   -4.8354   -0.3369 H   0  0  0  0  0  0
    8.4123    0.3171    1.0375 H   0  0  0  0  0  0
    7.6031   -1.1994    1.3762 H   0  0  0  0  0  0
    5.6756    1.5892   -0.8342 H   0  0  0  0  0  0
   -1.0520    3.4672    1.7488 H   0  0  0  0  0  0
   -0.3030    3.9678    0.2360 H   0  0  0  0  0  0
    0.8064    5.0773    2.1915 H   0  0  0  0  0  0
    1.9477    4.0204    1.3648 H   0  0  0  0  0  0
    1.2019    3.5048    2.8780 H   0  0  0  0  0  0
    7.2879    1.9427   -0.2479 H   0  0  0  0  0  0
  1  2  1  0  0  0
  1  3  2  0  0  0
  1  4  1  0  0  0
  2  5  1  0  0  0
  2 20  1  0  0  0
  2 21  1  0  0  0
  4 18  1  0  0  0
  5 11  1  0  0  0
  6  7  2  0  0  0
  6 10  1  0  0  0
  6 14  1  0  0  0
  7  8  1  0  0  0
  7 11  1  0  0  0
  8  9  2  0  0  0
  8 22  1  0  0  0
  9 10  1  0  0  0
  9 15  1  0  0  0
 11 12  2  0  0  0
 12 13  1  0  0  0
 12 23  1  0  0  0
 13 14  2  0  0  0
 13 24  1  0  0  0
 14 25  1  0  0  0
 15 16  1  0  0  0
 15 17  2  0  0  0
 16 26  1  0  0  0
 16 27  1  0  0  0
 17 28  1  0  0  0
 17 34  1  0  0  0
 18 19  1  0  0  0
 18 29  1  0  0  0
 18 30  1  0  0  0
 19 31  1  0  0  0
 19 32  1  0  0  0
 19 33  1  0  0  0
M  CHG  1  17   1
M  END
> <chembl_id>
CHEMBL601310

> <chembl_pref_name>
None

> <s_m_source_file>
sdf/inactives_sanitized.sdf

> <i_m_source_file_index>
113

> <i_lp_mmshare_version>
49012

> <i_m_ct_stereo_status>
1

> <i_f3d_flags>
0

> <s_epik_input>
W0NIM11bQ0gyXU9DKD1PKVtDSDJdT2MoW2NIXVtjSF1bY0hdMSljKGMxMilbY0hdYyhzMikvQyhbTkgyXSk9TlxbSF0=

> <s_epik_cmdline>
J2VwaWtfcHl0aG9uJywgJy1waHQnLCAnMC41JywgJy1waCcsICc3LjUnLCAnLW50JywgJy1tYScsICcyMDAnLCAnLWltYWUnLCAnPGluZmlsZS5tYWU+JywgJy1vbWFlJywgJzxvdXRmaWxlLm1hZT4n

> <r_lp_tautomer_probability>
1

> <r_epik_Ionization_Penalty>
  0.0095

> <r_epik_Ionization_Penalty_Charging>
  0.0095

> <r_epik_Ionization_Penalty_Neutral>
  0.0000

> <r_epik_State_Penalty>
 -0.0000

> <r_epik_Charging_Adjusted_Penalty>
0.00945881282357717

> <i_epik_Tot_Q>
1

> <i_epik_Tot_abs_Q>
1

> <s_epik_Chemistry_Notes>
This compound has an ester and may undergo hydrolysis at high or low pH. This compound has an imine and may undergo hydrolysis.

> <s_lp_Force_Field>
OPLS3e

> <r_lp_Energy>
19.00035

> <b_lp_Chiralities_Consistent>
1

> <s_lp_Variant>
sdf/inactives_sanitized.sdf:113-1

$$$$
sdf/inactives_sanitized.sdf:114
                    3D
 Schrodinger Suite 2020-1.
 49 52  0  0  1  0            999 V2000
   -2.8555    2.5803    0.0729 C   0  0  0  0  0  0
   -3.9878    2.7275    0.8794 C   0  0  0  0  0  0
   -4.6735    3.9349    0.9748 C   0  0  0  0  0  0
   -2.3923    3.6773   -0.6659 C   0  0  0  0  0  0
   -3.0563    4.9140   -0.6019 C   0  0  0  0  0  0
   -4.2033    5.0241    0.2312 C   0  0  0  0  0  0
   -4.8829    6.6417    0.1774 S   0  0  0  0  0  0
   -3.6475    7.1634   -0.9628 C   0  0  0  0  0  0
   -2.7620    6.1382   -1.2632 C   0  0  0  0  0  0
   -3.6160    8.4611   -1.4387 C   0  0  0  0  0  0
   -4.7582    9.1017   -1.6534 N   0  0  0  0  0  0
   -2.4372    9.0225   -1.6760 N   0  3  0  0  0  0
   -2.1466    1.2712   -0.0020 C   0  0  0  0  0  0
   -2.8606    0.0711   -0.1003 C   0  0  0  0  0  0
   -0.8025   -1.1863   -0.1461 C   0  0  0  0  0  0
   -0.0516   -0.0065   -0.0501 C   0  0  0  0  0  0
   -2.1946   -1.1496   -0.1719 C   0  0  0  0  0  0
   -0.7461    1.2109    0.0227 C   0  0  0  0  0  0
    1.4429   -0.0426   -0.0259 C   0  0  0  0  0  0
    2.2001    0.9832   -0.6075 C   0  0  0  0  0  0
    4.2732   -0.0984    0.0281 C   0  0  0  0  0  0
    3.5211   -1.1319    0.6085 C   0  0  0  0  0  0
    3.6058    0.9690   -0.5882 C   0  0  0  0  0  0
    2.1296   -1.1011    0.5792 C   0  0  0  0  0  0
    4.3906    1.9612   -1.1505 O   0  0  0  0  0  0
    3.7697    3.0698   -1.7924 C   0  0  0  0  0  0
    5.6568   -0.0651    0.0247 O   0  0  0  0  0  0
    6.3847   -1.1185    0.6467 C   0  0  0  0  0  0
   -4.3467    1.8873    1.4565 H   0  0  0  0  0  0
   -5.5445    4.0233    1.6079 H   0  0  0  0  0  0
   -1.5216    3.5703   -1.2965 H   0  0  0  0  0  0
   -1.9286    6.2538   -1.9403 H   0  0  0  0  0  0
   -4.7471   10.0508   -1.9969 H   0  0  0  0  0  0
   -5.6350    8.6363   -1.4681 H   0  0  0  0  0  0
   -2.3908    9.9696   -2.0220 H   0  0  0  0  0  0
   -3.9406    0.0789   -0.1293 H   0  0  0  0  0  0
   -0.3106   -2.1455   -0.2151 H   0  0  0  0  0  0
   -2.7578   -2.0676   -0.2528 H   0  0  0  0  0  0
   -0.1892    2.1317    0.1182 H   0  0  0  0  0  0
    1.6793    1.7953   -1.0905 H   0  0  0  0  0  0
    3.9990   -1.9701    1.0920 H   0  0  0  0  0  0
    1.5870   -1.9092    1.0477 H   0  0  0  0  0  0
    4.5389    3.7435   -2.1697 H   0  0  0  0  0  0
    3.1463    3.6367   -1.0990 H   0  0  0  0  0  0
    3.1641    2.7518   -2.6424 H   0  0  0  0  0  0
    7.4525   -0.9203    0.5550 H   0  0  0  0  0  0
    6.1852   -2.0790    0.1692 H   0  0  0  0  0  0
    6.1535   -1.1912    1.7105 H   0  0  0  0  0  0
   -1.5907    8.5021   -1.4985 H   0  0  0  0  0  0
  1  2  2  0  0  0
  1  4  1  0  0  0
  1 13  1  0  0  0
  2  3  1  0  0  0
  2 29  1  0  0  0
  3  6  2  0  0  0
  3 30  1  0  0  0
  4  5  2  0  0  0
  4 31  1  0  0  0
  5  9  1  0  0  0
  5  6  1  0  0  0
  6  7  1  0  0  0
  7  8  1  0  0  0
  8  9  2  0  0  0
  8 10  1  0  0  0
  9 32  1  0  0  0
 10 11  1  0  0  0
 10 12  2  0  0  0
 11 33  1  0  0  0
 11 34  1  0  0  0
 12 35  1  0  0  0
 12 49  1  0  0  0
 13 14  2  0  0  0
 13 18  1  0  0  0
 14 17  1  0  0  0
 14 36  1  0  0  0
 15 16  1  0  0  0
 15 17  2  0  0  0
 15 37  1  0  0  0
 16 18  2  0  0  0
 16 19  1  0  0  0
 17 38  1  0  0  0
 18 39  1  0  0  0
 19 20  2  0  0  0
 19 24  1  0  0  0
 20 23  1  0  0  0
 20 40  1  0  0  0
 21 22  1  0  0  0
 21 23  2  0  0  0
 21 27  1  0  0  0
 22 24  2  0  0  0
 22 41  1  0  0  0
 23 25  1  0  0  0
 24 42  1  0  0  0
 25 26  1  0  0  0
 26 43  1  0  0  0
 26 44  1  0  0  0
 26 45  1  0  0  0
 27 28  1  0  0  0
 28 46  1  0  0  0
 28 47  1  0  0  0
 28 48  1  0  0  0
M  CHG  1  12   1
M  END
> <chembl_id>
CHEMBL599413

> <chembl_pref_name>
None

> <s_m_source_file>
sdf/inactives_sanitized.sdf

> <i_m_source_file_index>
114

> <i_lp_mmshare_version>
49012

> <i_m_ct_stereo_status>
1

> <i_f3d_flags>
0

> <s_epik_input>
W0hdXE49QyhbTkgyXSlcYyhbY0hdMSlzYyhjMTIpW2NIXVtjSF1jKFtjSF0yKS1jM1tjSF1bY0hdW2NIXWMoW2NIXTMpLWM0W2NIXWMoT1tDSDNdKWMoW2NIXVtjSF00KU9bQ0gzXQ==

> <s_epik_cmdline>
J2VwaWtfcHl0aG9uJywgJy1waHQnLCAnMC41JywgJy1waCcsICc3LjUnLCAnLW50JywgJy1tYScsICcyMDAnLCAnLWltYWUnLCAnPGluZmlsZS5tYWU+JywgJy1vbWFlJywgJzxvdXRmaWxlLm1hZT4n

> <r_lp_tautomer_probability>
1

> <r_epik_Ionization_Penalty>
  0.0095

> <r_epik_Ionization_Penalty_Charging>
  0.0095

> <r_epik_Ionization_Penalty_Neutral>
  0.0000

> <r_epik_State_Penalty>
 -0.0000

> <r_epik_Charging_Adjusted_Penalty>
0.00945881282357717

> <i_epik_Tot_Q>
1

> <i_epik_Tot_abs_Q>
1

> <s_epik_Chemistry_Notes>
This compound has an imine and may undergo hydrolysis.

> <s_lp_Force_Field>
OPLS3e

> <r_lp_Energy>
38.270014

> <b_lp_Chiralities_Consistent>
1

> <s_lp_Variant>
sdf/inactives_sanitized.sdf:114-1

$$$$
sdf/inactives_sanitized.sdf:115
                    3D
 Schrodinger Suite 2020-1.
 69 72  0  0  1  0            999 V2000
   -0.1535    0.1095    0.1100 C   0  0  0  0  0  0
    1.3830   -0.0820    0.0684 C   0  0  2  0  0  0
    1.9464    0.0556   -1.3689 C   0  0  0  0  0  0
    3.1545    0.7972   -1.6360 C   0  0  0  0  0  0
   -2.1920    3.3411    0.0946 C   0  0  2  0  0  0
   -0.5918    1.3683   -0.0782 N   0  0  0  0  0  0
    3.9223    1.4631   -0.6330 C   0  0  0  0  0  0
   -1.9926    1.8067   -0.1138 C   0  0  2  0  0  0
   -1.4650    3.8654    1.3511 C   0  0  0  0  0  0
    5.8687    2.8227    0.1366 C   0  0  0  0  0  0
    5.0980    2.1689   -0.9272 C   0  0  0  0  0  0
    7.1887    2.9044    0.0218 N   0  3  0  0  0  0
   -0.9093   -0.8472    0.2913 O   0  0  0  0  0  0
    1.8460   -1.3961    0.7608 C   0  0  0  0  0  0
    3.6317    0.8679   -2.9841 C   0  0  0  0  0  0
   -0.5932    4.7321    1.2602 O   0  0  0  0  0  0
    5.5201    2.2234   -2.2598 C   0  0  0  0  0  0
    4.8105    1.5920   -3.2731 C   0  0  0  0  0  0
    5.2293    3.3166    1.1903 N   0  0  0  0  0  0
   -1.8755    3.2719    2.4954 O   0  0  0  0  0  0
    3.3580   -1.5083    0.9228 C   0  0  0  0  0  0
    1.3106   -0.6073   -2.4279 C   0  0  0  0  0  0
   -3.6901    3.7263    0.1475 C   0  0  0  0  0  0
   -2.7703    1.3215   -1.3671 C   0  0  0  0  0  0
    1.7846   -0.5267   -3.7285 C   0  0  0  0  0  0
    2.9262    0.2062   -4.0157 C   0  0  0  0  0  0
   -1.2935    3.6248    3.7429 C   0  0  0  0  0  0
    4.1186   -2.1735   -0.0432 C   0  0  0  0  0  0
    3.9842   -0.9271    2.0291 C   0  0  0  0  0  0
   -4.3944    3.3015   -1.1520 C   0  0  0  0  0  0
   -1.9590    2.8194    4.8633 C   0  0  0  0  0  0
   -4.2420    1.7884   -1.3962 C   0  0  0  0  0  0
    5.3682   -1.0011    2.1629 C   0  0  0  0  0  0
    5.5025   -2.2464    0.0906 C   0  0  0  0  0  0
    6.1210   -1.6591    1.1924 C   0  0  0  0  0  0
    1.7269    0.7425    0.6885 H   0  0  0  0  0  0
   -1.7430    3.8566   -0.7561 H   0  0  0  0  0  0
    0.0936    2.0822   -0.2774 H   0  0  0  0  0  0
    3.6116    1.4067    0.3966 H   0  0  0  0  0  0
   -2.4699    1.3217    0.7427 H   0  0  0  0  0  0
    7.7305    3.3549    0.7445 H   0  0  0  0  0  0
    1.4008   -1.4767    1.7549 H   0  0  0  0  0  0
    1.4784   -2.2677    0.2156 H   0  0  0  0  0  0
    6.4160    2.7637   -2.5321 H   0  0  0  0  0  0
    5.1652    1.6469   -4.2926 H   0  0  0  0  0  0
    5.7485    3.7692    1.9281 H   0  0  0  0  0  0
    4.2238    3.2426    1.2458 H   0  0  0  0  0  0
    0.4253   -1.1990   -2.2448 H   0  0  0  0  0  0
   -4.1901    3.2634    1.0008 H   0  0  0  0  0  0
   -3.8019    4.8077    0.2460 H   0  0  0  0  0  0
   -2.2740    1.7045   -2.2602 H   0  0  0  0  0  0
   -2.7425    0.2335   -1.4391 H   0  0  0  0  0  0
    1.2626   -1.0417   -4.5215 H   0  0  0  0  0  0
    3.2887    0.2609   -5.0323 H   0  0  0  0  0  0
   -0.2216    3.4200    3.7240 H   0  0  0  0  0  0
   -1.4217    4.6930    3.9266 H   0  0  0  0  0  0
    3.6408   -2.6210   -0.9029 H   0  0  0  0  0  0
    3.4015   -0.4106    2.7782 H   0  0  0  0  0  0
   -3.9783    3.8539   -1.9963 H   0  0  0  0  0  0
   -5.4519    3.5647   -1.1060 H   0  0  0  0  0  0
   -1.5260    3.0731    5.8309 H   0  0  0  0  0  0
   -1.8271    1.7476    4.7110 H   0  0  0  0  0  0
   -3.0292    3.0233    4.9143 H   0  0  0  0  0  0
   -4.8029    1.2452   -0.6339 H   0  0  0  0  0  0
   -4.6958    1.5200   -2.3510 H   0  0  0  0  0  0
    5.8556   -0.5501    3.0146 H   0  0  0  0  0  0
    6.0931   -2.7548   -0.6572 H   0  0  0  0  0  0
    7.1945   -1.7166    1.2961 H   0  0  0  0  0  0
    7.6446    2.5144   -0.7902 H   0  0  0  0  0  0
  1  2  1  0  0  0
  1  6  1  0  0  0
  1 13  2  0  0  0
  2  3  1  0  0  0
  2 14  1  0  0  0
  2 36  1  0  0  0
  3  4  1  0  0  0
  3 22  2  0  0  0
  4  7  2  0  0  0
  4 15  1  0  0  0
  5  8  1  0  0  0
  5  9  1  0  0  0
  5 23  1  0  0  0
  5 37  1  0  0  0
  6  8  1  0  0  0
  6 38  1  0  0  0
  7 11  1  0  0  0
  7 39  1  0  0  0
  8 24  1  0  0  0
  8 40  1  0  0  0
  9 16  2  0  0  0
  9 20  1  0  0  0
 10 11  1  0  0  0
 10 12  2  0  0  0
 10 19  1  0  0  0
 11 17  2  0  0  0
 12 41  1  0  0  0
 12 69  1  0  0  0
 14 21  1  0  0  0
 14 42  1  0  0  0
 14 43  1  0  0  0
 15 18  2  0  0  0
 15 26  1  0  0  0
 17 18  1  0  0  0
 17 44  1  0  0  0
 18 45  1  0  0  0
 19 46  1  0  0  0
 19 47  1  0  0  0
 20 27  1  0  0  0
 21 28  2  0  0  0
 21 29  1  0  0  0
 22 25  1  0  0  0
 22 48  1  0  0  0
 23 30  1  0  0  0
 23 49  1  0  0  0
 23 50  1  0  0  0
 24 32  1  0  0  0
 24 51  1  0  0  0
 24 52  1  0  0  0
 25 26  2  0  0  0
 25 53  1  0  0  0
 26 54  1  0  0  0
 27 31  1  0  0  0
 27 55  1  0  0  0
 27 56  1  0  0  0
 28 34  1  0  0  0
 28 57  1  0  0  0
 29 33  2  0  0  0
 29 58  1  0  0  0
 30 32  1  0  0  0
 30 59  1  0  0  0
 30 60  1  0  0  0
 31 61  1  0  0  0
 31 62  1  0  0  0
 31 63  1  0  0  0
 32 64  1  0  0  0
 32 65  1  0  0  0
 33 35  1  0  0  0
 33 66  1  0  0  0
 34 35  2  0  0  0
 34 67  1  0  0  0
 35 68  1  0  0  0
M  CHG  1  12   1
M  END
> <chembl_id>
CHEMBL362478

> <chembl_pref_name>
None

> <i_m_ct_stereo_status>
1

> <s_m_source_file>
sdf/inactives_sanitized.sdf

> <i_m_source_file_index>
115

> <i_lp_mmshare_version>
49012

> <i_f3d_flags>
0

> <s_epik_input>
W0NIM11bQ0gyXU9DKD1PKVtDQEhdMVtDQEBIXShbQ0gyXVtDSDJdW0NIMl1bQ0gyXTEpW05IXUMoPU8pW0NAQEhdKFtDSDJdYzJbY0hdW2NIXVtjSF1bY0hdW2NIXTIpYzNbY0hdW2NIXVtjSF1jKGMzNClbY0hdW2NIXWMoW2NIXTQpL0MoPU4vW0hdKVtOSDJd

> <s_epik_cmdline>
J2VwaWtfcHl0aG9uJywgJy1waHQnLCAnMC41JywgJy1waCcsICc3LjUnLCAnLW50JywgJy1tYScsICcyMDAnLCAnLWltYWUnLCAnPGluZmlsZS5tYWU+JywgJy1vbWFlJywgJzxvdXRmaWxlLm1hZT4n

> <r_lp_tautomer_probability>
1

> <r_epik_Ionization_Penalty>
  0.0010

> <r_epik_Ionization_Penalty_Charging>
  0.0010

> <r_epik_Ionization_Penalty_Neutral>
  0.0000

> <r_epik_State_Penalty>
 -0.0000

> <r_epik_Charging_Adjusted_Penalty>
0.000984797499885888

> <i_epik_Tot_Q>
1

> <i_epik_Tot_abs_Q>
1

> <s_epik_Chemistry_Notes>
This compound has an ester and may undergo hydrolysis at high or low pH. This compound has an imine and may undergo hydrolysis.

> <s_lp_Force_Field>
OPLS3e

> <r_lp_Energy>
40.867256

> <b_lp_Chiralities_Consistent>
1

> <s_lp_Variant>
sdf/inactives_sanitized.sdf:115-1

$$$$
sdf/inactives_sanitized.sdf:116
                    3D
 Schrodinger Suite 2020-1.
 68 72  0  0  1  0            999 V2000
   -3.5942   -3.5218   -0.4643 C   0  0  0  0  0  0
   -2.4577   -2.1888    3.6282 C   0  0  0  0  0  0
   -2.3404   -1.6590    1.5058 C   0  0  0  0  0  0
   -1.6176   -2.1783    2.5503 N   0  0  0  0  0  0
    2.9153    3.5533    1.4990 N   0  0  0  0  0  0
    0.0566   -0.0899   -0.0697 C   0  0  0  0  0  0
   -6.0016   -4.3230    2.0286 C   0  0  0  0  0  0
   -1.8775   -1.6670    0.0491 C   0  0  1  0  0  0
   -3.9828   -4.4435    0.4344 C   0  0  0  0  0  0
    4.3616    2.4091   -0.0563 C   0  0  0  0  0  0
    1.4993   -0.0700   -0.1528 C   0  0  0  0  0  0
   -3.6601   -1.6731    3.1563 C   0  0  0  0  0  0
   -5.4191   -4.8624    0.6977 C   0  0  0  0  0  0
    6.7325   -1.1782   -1.4611 Cl  0  0  0  0  0  0
    2.2079    1.0785   -0.2310 C   0  0  0  0  0  0
    4.4469    0.0995   -0.7720 C   0  0  0  0  0  0
   -7.4043   -1.1548    5.2249 C   0  0  0  0  0  0
    6.4801    1.3917   -0.6555 C   0  0  0  0  0  0
   -9.5345   -1.7199    6.4708 C   0  0  0  0  0  0
   -0.4526   -1.3358   -0.0650 N   0  0  0  0  0  0
   -5.2431   -4.7625    3.3055 C   0  0  0  0  0  0
   -5.1291   -3.9348    4.3666 N   0  0  0  0  0  0
    2.4997    4.8625    1.6574 N   0  0  0  0  0  0
    3.6977    3.5650    0.4096 N   0  0  0  0  0  0
   -6.8416   -2.4374    5.1273 C   0  0  0  0  0  0
   -9.4647   -2.9475    6.5614 O   0  0  0  0  0  0
   -3.5568   -1.3299    1.8803 N   0  0  0  0  0  0
    5.7497    2.4953   -0.2248 C   0  0  0  0  0  0
   -4.9556   -1.5339    3.8821 C   0  0  0  0  0  0
    3.0564    5.6662    0.6669 N   0  0  0  0  0  0
    3.6849    1.2001   -0.3457 C   0  0  0  0  0  0
   -5.5250   -0.2608    3.9820 C   0  0  0  0  0  0
   -5.6335   -2.6303    4.4496 C   0  0  0  0  0  0
  -11.6513   -1.5944    7.6140 C   0  0  0  0  0  0
   -8.6175   -0.8618    5.8710 N   0  0  0  0  0  0
    3.7805    4.8549   -0.0610 C   0  0  0  0  0  0
   -6.7350   -0.0734    4.6475 C   0  0  0  0  0  0
  -10.5539   -0.9798    6.9523 O   0  0  0  0  0  0
   -0.6392    0.9277   -0.0348 O   0  0  0  0  0  0
    5.8293    0.1921   -0.9261 C   0  0  0  0  0  0
   -2.1591   -3.0397   -0.6147 C   0  0  0  0  0  0
   -4.7562   -5.8908    3.3563 O   0  0  0  0  0  0
   -4.3305   -3.0350   -1.0878 H   0  0  0  0  0  0
   -2.1478   -2.5823    4.5852 H   0  0  0  0  0  0
   -0.6714   -2.5298    2.5159 H   0  0  0  0  0  0
   -6.0544   -3.2370    1.9585 H   0  0  0  0  0  0
   -7.0323   -4.6641    2.1297 H   0  0  0  0  0  0
   -2.4512   -0.9190   -0.5046 H   0  0  0  0  0  0
   -3.2392   -4.9030    1.0702 H   0  0  0  0  0  0
    1.9936   -1.0313   -0.1491 H   0  0  0  0  0  0
   -5.4667   -5.9520    0.6726 H   0  0  0  0  0  0
   -6.0481   -4.5184   -0.1251 H   0  0  0  0  0  0
    1.6649    2.0136   -0.2363 H   0  0  0  0  0  0
    3.9727   -0.8404   -1.0112 H   0  0  0  0  0  0
    7.5509    1.4693   -0.7754 H   0  0  0  0  0  0
    0.1907   -2.1015    0.0711 H   0  0  0  0  0  0
   -4.6833   -4.2947    5.1979 H   0  0  0  0  0  0
   -7.3265   -3.2984    5.5596 H   0  0  0  0  0  0
    6.2735    3.4156   -0.0082 H   0  0  0  0  0  0
   -5.0263    0.5927    3.5454 H   0  0  0  0  0  0
  -12.3729   -0.8358    7.9175 H   0  0  0  0  0  0
  -11.3217   -2.1267    8.5074 H   0  0  0  0  0  0
  -12.1594   -2.3016    6.9567 H   0  0  0  0  0  0
   -8.8625    0.1174    5.8865 H   0  0  0  0  0  0
    4.3814    5.0973   -0.9252 H   0  0  0  0  0  0
   -7.1487    0.9234    4.7085 H   0  0  0  0  0  0
   -1.4939   -3.7916   -0.1851 H   0  0  0  0  0  0
   -1.9208   -3.0043   -1.6786 H   0  0  0  0  0  0
  1  9  2  0  0  0
  1 41  1  0  0  0
  1 43  1  0  0  0
  2 12  2  0  0  0
  2  4  1  0  0  0
  2 44  1  0  0  0
  3 27  2  0  0  0
  3  8  1  0  0  0
  3  4  1  0  0  0
  4 45  1  0  0  0
  5 23  2  0  0  0
  5 24  1  0  0  0
  6 11  1  0  0  0
  6 39  2  0  0  0
  6 20  1  0  0  0
  7 13  1  0  0  0
  7 21  1  0  0  0
  7 46  1  0  0  0
  7 47  1  0  0  0
  8 20  1  0  0  0
  8 41  1  0  0  0
  8 48  1  0  0  0
  9 13  1  0  0  0
  9 49  1  0  0  0
 10 24  1  0  0  0
 10 31  1  0  0  0
 10 28  2  0  0  0
 11 15  2  0  0  0
 11 50  1  0  0  0
 12 29  1  0  0  0
 12 27  1  0  0  0
 13 51  1  0  0  0
 13 52  1  0  0  0
 14 40  1  0  0  0
 15 31  1  0  0  0
 15 53  1  0  0  0
 16 31  2  0  0  0
 16 40  1  0  0  0
 16 54  1  0  0  0
 17 35  1  0  0  0
 17 25  2  0  0  0
 17 37  1  0  0  0
 18 28  1  0  0  0
 18 40  2  0  0  0
 18 55  1  0  0  0
 19 26  2  0  0  0
 19 38  1  0  0  0
 19 35  1  0  0  0
 20 56  1  0  0  0
 21 22  1  0  0  0
 21 42  2  0  0  0
 22 33  1  0  0  0
 22 57  1  0  0  0
 23 30  1  0  0  0
 24 36  1  0  0  0
 25 33  1  0  0  0
 25 58  1  0  0  0
 28 59  1  0  0  0
 29 32  1  0  0  0
 29 33  2  0  0  0
 30 36  2  0  0  0
 32 37  2  0  0  0
 32 60  1  0  0  0
 34 38  1  0  0  0
 34 61  1  0  0  0
 34 62  1  0  0  0
 34 63  1  0  0  0
 35 64  1  0  0  0
 36 65  1  0  0  0
 37 66  1  0  0  0
 41 67  1  0  0  0
 41 68  1  0  0  0
M  END
> <chembl_id>
CHEMBL4071545

> <chembl_pref_name>
None

> <i_m_ct_stereo_status>
1

> <s_m_source_file>
sdf/inactives_sanitized.sdf

> <i_m_source_file_index>
116

> <i_lp_mmshare_version>
49012

> <i_f3d_flags>
0

> <s_epik_input>
W0NIM11PQyg9TylbTkhdYyhbY0hdW2NIXTEpW2NIXWMoYzFjKG4yKVtjSF1bbkhdYzIzKVtOSF1DKD1PKVtDSDJdW0NIMl1cW0NIXT1bQ0hdXFtDSDJdW0NAQEhdM1tOSF1DKD1PKS9bQ0hdPVtDSF0vYzRbY0hdYyhDbClbY0hdW2NIXWM0LW41bm5uW2NIXTU=

> <s_epik_cmdline>
J2VwaWtfcHl0aG9uJywgJy1waHQnLCAnMC41JywgJy1waCcsICc3LjUnLCAnLW50JywgJy1tYScsICcyMDAnLCAnLWltYWUnLCAnPGluZmlsZS5tYWU+JywgJy1vbWFlJywgJzxvdXRmaWxlLm1hZT4n

> <r_lp_tautomer_probability>
0.499999999999999

> <r_epik_Ionization_Penalty>
  0.0803

> <r_epik_Ionization_Penalty_Charging>
  0.0803

> <r_epik_Ionization_Penalty_Neutral>
  0.0000

> <r_epik_State_Penalty>
  0.4349

> <r_epik_Charging_Adjusted_Penalty>
0.515119724139036

> <i_epik_Tot_Q>
0

> <i_epik_Tot_abs_Q>
0

> <s_epik_Chemistry_Notes>
This compound has an ester and may undergo hydrolysis at high or low pH.

> <s_lp_Force_Field>
OPLS3e

> <r_lp_Energy>
54.659581

> <b_lp_Chiralities_Consistent>
1

> <s_lp_Variant>
sdf/inactives_sanitized.sdf:116-1

$$$$
sdf/inactives_sanitized.sdf:116
                    3D
 Schrodinger Suite 2020-1.
 68 72  0  0  1  0            999 V2000
   -3.5337   -3.4105   -1.6135 C   0  0  0  0  0  0
   -2.3238   -2.3489    3.1644 C   0  0  0  0  0  0
   -2.2274   -2.1510    1.0719 C   0  0  0  0  0  0
   -1.5053   -2.0360    2.1671 N   0  0  0  0  0  0
    2.8695    3.0527    2.0173 N   0  0  0  0  0  0
    0.0983   -0.2025   -0.2714 C   0  0  0  0  0  0
   -6.5402   -3.7114    0.0826 C   0  0  0  0  0  0
   -1.8056   -1.8283   -0.3738 C   0  0  1  0  0  0
   -4.6399   -2.7032   -1.3130 C   0  0  0  0  0  0
    4.3674    2.2873    0.2858 C   0  0  0  0  0  0
    1.5410   -0.1471   -0.3358 C   0  0  0  0  0  0
   -3.6016   -2.6983    2.7326 C   0  0  0  0  0  0
   -6.0534   -3.2586   -1.3231 C   0  0  0  0  0  0
    6.7939   -0.8986   -1.8188 Cl  0  0  0  0  0  0
    2.2317    1.0067   -0.2003 C   0  0  0  0  0  0
    4.4860    0.1851   -0.9075 C   0  0  0  0  0  0
   -7.3119   -3.5191    4.7650 C   0  0  0  0  0  0
    6.5040    1.4378   -0.4869 C   0  0  0  0  0  0
   -9.5777   -4.5189    5.2861 C   0  0  0  0  0  0
   -0.3889   -1.4449   -0.4508 N   0  0  0  0  0  0
   -5.7529   -4.9130    0.6602 C   0  0  0  0  0  0
   -5.4023   -4.9732    1.9623 N   0  0  0  0  0  0
    2.4434    4.2927    2.4558 N   0  0  0  0  0  0
    3.6851    3.3090    0.9833 N   0  0  0  0  0  0
   -6.9545   -4.3085    3.6608 C   0  0  0  0  0  0
   -9.7349   -5.3059    4.3499 O   0  0  0  0  0  0
   -3.4927   -2.5615    1.3824 N   0  0  0  0  0  0
    5.7565    2.4180    0.1593 C   0  0  0  0  0  0
   -4.8827   -3.0537    3.4104 C   0  0  0  0  0  0
    3.0275    5.2990    1.6923 N   0  0  0  0  0  0
    3.7078    1.1636   -0.2671 C   0  0  0  0  0  0
   -5.2396   -2.2865    4.5231 C   0  0  0  0  0  0
   -5.7537   -4.0768    2.9805 C   0  0  0  0  0  0
  -11.6815   -5.0732    6.3213 C   0  0  0  0  0  0
   -8.4930   -3.6762    5.5099 N   0  0  0  0  0  0
    3.7770    4.6722    0.8216 C   0  0  0  0  0  0
   -6.4413   -2.5142    5.1907 C   0  0  0  0  0  0
  -10.4674   -4.3356    6.2826 O   0  0  0  0  0  0
   -0.6151    0.7881   -0.0946 O   0  0  0  0  0  0
    5.8693    0.3188   -1.0173 C   0  0  0  0  0  0
   -2.0849   -2.9865   -1.3771 C   0  0  0  0  0  0
   -5.4376   -5.8340   -0.0916 O   0  0  0  0  0  0
   -3.6554   -4.4258   -1.9636 H   0  0  0  0  0  0
   -1.9945   -2.3124    4.1924 H   0  0  0  0  0  0
   -6.5117   -2.8606    0.7640 H   0  0  0  0  0  0
   -7.5867   -4.0114    0.0192 H   0  0  0  0  0  0
   -2.3888   -0.9679   -0.7098 H   0  0  0  0  0  0
   -4.5498   -1.6947   -0.9375 H   0  0  0  0  0  0
    2.0520   -1.0866   -0.4941 H   0  0  0  0  0  0
   -6.1091   -4.0927   -2.0253 H   0  0  0  0  0  0
   -6.7181   -2.4925   -1.7235 H   0  0  0  0  0  0
    1.6759    1.9221   -0.0495 H   0  0  0  0  0  0
    4.0229   -0.6851   -1.3483 H   0  0  0  0  0  0
    7.5754    1.5471   -0.5712 H   0  0  0  0  0  0
    0.2715   -2.2074   -0.4173 H   0  0  0  0  0  0
   -4.8792   -5.7841    2.2593 H   0  0  0  0  0  0
   -7.5826   -5.1184    3.3245 H   0  0  0  0  0  0
    6.2683    3.2745    0.5753 H   0  0  0  0  0  0
   -4.5905   -1.4951    4.8704 H   0  0  0  0  0  0
  -12.2557   -4.7940    7.2046 H   0  0  0  0  0  0
  -11.4873   -6.1458    6.3680 H   0  0  0  0  0  0
  -12.2924   -4.8695    5.4407 H   0  0  0  0  0  0
   -8.5661   -3.0776    6.3195 H   0  0  0  0  0  0
    4.4037    5.1034    0.0546 H   0  0  0  0  0  0
   -6.6902   -1.8985    6.0437 H   0  0  0  0  0  0
   -1.5484   -3.8726   -1.0341 H   0  0  0  0  0  0
   -1.6651   -2.7465   -2.3550 H   0  0  0  0  0  0
   -4.2380   -2.7110    0.7172 H   0  0  0  0  0  0
  1  9  2  0  0  0
  1 41  1  0  0  0
  1 43  1  0  0  0
  2 12  2  0  0  0
  2  4  1  0  0  0
  2 44  1  0  0  0
  3 27  1  0  0  0
  3  8  1  0  0  0
  3  4  2  0  0  0
  5 23  2  0  0  0
  5 24  1  0  0  0
  6 11  1  0  0  0
  6 39  2  0  0  0
  6 20  1  0  0  0
  7 13  1  0  0  0
  7 21  1  0  0  0
  7 45  1  0  0  0
  7 46  1  0  0  0
  8 20  1  0  0  0
  8 41  1  0  0  0
  8 47  1  0  0  0
  9 13  1  0  0  0
  9 48  1  0  0  0
 10 24  1  0  0  0
 10 31  1  0  0  0
 10 28  2  0  0  0
 11 15  2  0  0  0
 11 49  1  0  0  0
 12 29  1  0  0  0
 12 27  1  0  0  0
 13 50  1  0  0  0
 13 51  1  0  0  0
 14 40  1  0  0  0
 15 31  1  0  0  0
 15 52  1  0  0  0
 16 31  2  0  0  0
 16 40  1  0  0  0
 16 53  1  0  0  0
 17 35  1  0  0  0
 17 25  2  0  0  0
 17 37  1  0  0  0
 18 28  1  0  0  0
 18 40  2  0  0  0
 18 54  1  0  0  0
 19 26  2  0  0  0
 19 38  1  0  0  0
 19 35  1  0  0  0
 20 55  1  0  0  0
 21 22  1  0  0  0
 21 42  2  0  0  0
 22 33  1  0  0  0
 22 56  1  0  0  0
 23 30  1  0  0  0
 24 36  1  0  0  0
 25 33  1  0  0  0
 25 57  1  0  0  0
 27 68  1  0  0  0
 28 58  1  0  0  0
 29 32  1  0  0  0
 29 33  2  0  0  0
 30 36  2  0  0  0
 32 37  2  0  0  0
 32 59  1  0  0  0
 34 38  1  0  0  0
 34 60  1  0  0  0
 34 61  1  0  0  0
 34 62  1  0  0  0
 35 63  1  0  0  0
 36 64  1  0  0  0
 37 65  1  0  0  0
 41 66  1  0  0  0
 41 67  1  0  0  0
M  END
> <chembl_id>
CHEMBL4071545

> <chembl_pref_name>
None

> <i_m_ct_stereo_status>
1

> <s_m_source_file>
sdf/inactives_sanitized.sdf

> <i_m_source_file_index>
116

> <i_lp_mmshare_version>
49012

> <i_f3d_flags>
0

> <s_epik_input>
W0NIM11PQyg9TylbTkhdYyhbY0hdW2NIXTEpW2NIXWMoYzFjKG4yKVtjSF1bbkhdYzIzKVtOSF1DKD1PKVtDSDJdW0NIMl1cW0NIXT1bQ0hdXFtDSDJdW0NAQEhdM1tOSF1DKD1PKS9bQ0hdPVtDSF0vYzRbY0hdYyhDbClbY0hdW2NIXWM0LW41bm5uW2NIXTU=

> <s_epik_cmdline>
J2VwaWtfcHl0aG9uJywgJy1waHQnLCAnMC41JywgJy1waCcsICc3LjUnLCAnLW50JywgJy1tYScsICcyMDAnLCAnLWltYWUnLCAnPGluZmlsZS5tYWU+JywgJy1vbWFlJywgJzxvdXRmaWxlLm1hZT4n

> <r_lp_tautomer_probability>
0.499999999999999

> <r_epik_Ionization_Penalty>
  0.0921

> <r_epik_Ionization_Penalty_Charging>
  0.0921

> <r_epik_Ionization_Penalty_Neutral>
  0.0000

> <r_epik_State_Penalty>
  0.4659

> <r_epik_Charging_Adjusted_Penalty>
0.557930036326282

> <i_epik_Tot_Q>
0

> <i_epik_Tot_abs_Q>
0

> <s_epik_Chemistry_Notes>
This compound has an ester and may undergo hydrolysis at high or low pH.

> <s_lp_Force_Field>
OPLS3e

> <r_lp_Energy>
55.722433

> <b_lp_Chiralities_Consistent>
1

> <s_lp_Variant>
sdf/inactives_sanitized.sdf:116-2

$$$$
sdf/inactives_sanitized.sdf:117
                    3D
 Schrodinger Suite 2020-1.
 67 71  0  0  1  0            999 V2000
   -2.1446    2.3406  -11.9729 C   0  0  0  0  0  0
   -2.5751    2.0858  -10.6427 O   0  0  0  0  0  0
   -1.7784    1.4355   -9.7703 C   0  0  0  0  0  0
   -0.6494    1.0188  -10.0383 O   0  0  0  0  0  0
   -2.4545    1.3291   -8.5585 N   0  0  0  0  0  0
   -2.0391    0.7494   -7.3475 C   0  0  0  0  0  0
   -0.7667    0.2002   -7.1216 C   0  0  0  0  0  0
   -0.4492   -0.3533   -5.8818 C   0  0  0  0  0  0
   -1.3910   -0.3721   -4.8497 C   0  0  0  0  0  0
   -2.6611    0.1984   -5.0640 C   0  0  0  0  0  0
   -3.6647    0.1893   -4.0823 N   0  0  0  0  0  0
   -3.7271    0.9444   -2.9630 C   0  0  0  0  0  0
   -4.6613    0.7798   -2.1799 O   0  0  0  0  0  0
   -2.6714    2.0383   -2.6659 C   0  0  0  0  0  0
   -2.5477    2.4512   -1.1712 C   0  0  0  0  0  0
   -1.9600    1.3849   -0.2116 C   0  0  0  0  0  0
   -0.4090    1.2921   -0.2035 C   0  0  0  0  0  0
    0.1724   -0.1457   -0.2861 C   0  0  2  0  0  0
    1.6358   -0.1083   -0.1815 N   0  0  0  0  0  0
    2.4548   -1.1766   -0.1385 C   0  0  0  0  0  0
    2.0597   -2.3407   -0.2397 O   0  0  0  0  0  0
    3.8452   -0.8139    0.0180 C   0  0  0  0  0  0
    4.8374   -1.7308    0.0640 C   0  0  0  0  0  0
    6.2914   -1.4537    0.2041 C   0  0  0  0  0  0
    6.7918   -0.1752   -0.0933 C   0  0  0  0  0  0
    8.1544    0.1070   -0.0081 C   0  0  0  0  0  0
    8.7344    1.6879   -0.3877 Cl  0  0  0  0  0  0
    9.0478   -0.8878    0.3765 C   0  0  0  0  0  0
    8.5773   -2.1606    0.6849 C   0  0  0  0  0  0
    7.2083   -2.4506    0.6157 C   0  0  0  0  0  0
    6.8088   -3.7561    0.9765 N   0  0  0  0  0  0
    7.3184   -4.9618    0.5531 C   0  0  0  0  0  0
    6.7228   -5.9595    1.1554 N   0  0  0  0  0  0
    5.8039   -5.3651    2.0150 N   0  0  0  0  0  0
    5.8732   -3.9883    1.9096 N   0  0  0  0  0  0
   -0.3016   -0.8219   -1.5659 C   0  0  0  0  0  0
   -0.1501   -0.3069   -2.7627 N   0  0  0  0  0  0
   -1.0160   -0.9446   -3.5310 C   0  0  0  0  0  0
   -1.5589   -2.0419   -2.8704 C   0  0  0  0  0  0
   -1.0964   -1.9377   -1.5879 N   0  0  0  0  0  0
   -2.9785    0.7397   -6.3125 C   0  0  0  0  0  0
   -2.9161    2.8900  -12.5122 H   0  0  0  0  0  0
   -1.9539    1.4090  -12.5074 H   0  0  0  0  0  0
   -1.2325    2.9392  -11.9823 H   0  0  0  0  0  0
   -3.3859    1.7180   -8.5437 H   0  0  0  0  0  0
   -0.0041    0.1899   -7.8832 H   0  0  0  0  0  0
    0.5357   -0.7698   -5.7254 H   0  0  0  0  0  0
   -4.4442   -0.4259   -4.2637 H   0  0  0  0  0  0
   -1.6922    1.7838   -3.0630 H   0  0  0  0  0  0
   -2.9884    2.9159   -3.2303 H   0  0  0  0  0  0
   -1.9460    3.3586   -1.1034 H   0  0  0  0  0  0
   -3.5313    2.7501   -0.8047 H   0  0  0  0  0  0
   -2.2853    1.6209    0.8026 H   0  0  0  0  0  0
   -2.4161    0.4171   -0.4206 H   0  0  0  0  0  0
    0.0044    1.8867   -1.0208 H   0  0  0  0  0  0
   -0.0397    1.7774    0.7017 H   0  0  0  0  0  0
   -0.1897   -0.6859    0.5918 H   0  0  0  0  0  0
    2.0298    0.7824    0.0838 H   0  0  0  0  0  0
    4.0587    0.2424    0.1023 H   0  0  0  0  0  0
    4.5721   -2.7745   -0.0310 H   0  0  0  0  0  0
    6.1303    0.6148   -0.4159 H   0  0  0  0  0  0
   10.1050   -0.6749    0.4407 H   0  0  0  0  0  0
    9.2846   -2.9172    0.9940 H   0  0  0  0  0  0
    8.1060   -5.0080   -0.1847 H   0  0  0  0  0  0
   -2.2937   -2.7830   -3.1481 H   0  0  0  0  0  0
   -1.3759   -2.4988   -0.7959 H   0  0  0  0  0  0
   -3.9624    1.1585   -6.4757 H   0  0  0  0  0  0
  1  2  1  0  0  0
  1 42  1  0  0  0
  1 43  1  0  0  0
  1 44  1  0  0  0
  2  3  1  0  0  0
  3  4  2  0  0  0
  3  5  1  0  0  0
  5  6  1  0  0  0
  5 45  1  0  0  0
  6  7  2  0  0  0
  6 41  1  0  0  0
  7  8  1  0  0  0
  7 46  1  0  0  0
  8  9  2  0  0  0
  8 47  1  0  0  0
  9 10  1  0  0  0
  9 38  1  0  0  0
 10 11  1  0  0  0
 10 41  2  0  0  0
 11 12  1  0  0  0
 11 48  1  0  0  0
 12 13  2  0  0  0
 12 14  1  0  0  0
 14 15  1  0  0  0
 14 49  1  0  0  0
 14 50  1  0  0  0
 15 16  1  0  0  0
 15 51  1  0  0  0
 15 52  1  0  0  0
 16 17  1  0  0  0
 16 53  1  0  0  0
 16 54  1  0  0  0
 17 18  1  0  0  0
 17 55  1  0  0  0
 17 56  1  0  0  0
 18 19  1  0  0  0
 18 36  1  0  0  0
 18 57  1  0  0  0
 19 20  1  0  0  0
 19 58  1  0  0  0
 20 21  2  0  0  0
 20 22  1  0  0  0
 22 23  2  0  0  0
 22 59  1  0  0  0
 23 24  1  0  0  0
 23 60  1  0  0  0
 24 25  2  0  0  0
 24 30  1  0  0  0
 25 26  1  0  0  0
 25 61  1  0  0  0
 26 27  1  0  0  0
 26 28  2  0  0  0
 28 29  1  0  0  0
 28 62  1  0  0  0
 29 30  2  0  0  0
 29 63  1  0  0  0
 30 31  1  0  0  0
 31 32  1  0  0  0
 31 35  1  0  0  0
 32 33  2  0  0  0
 32 64  1  0  0  0
 33 34  1  0  0  0
 34 35  2  0  0  0
 36 37  2  0  0  0
 36 40  1  0  0  0
 37 38  1  0  0  0
 38 39  2  0  0  0
 39 40  1  0  0  0
 39 65  1  0  0  0
 40 66  1  0  0  0
 41 67  1  0  0  0
M  END
> <chembl_id>
CHEMBL3676167

> <chembl_pref_name>
None

> <i_m_ct_stereo_status>
1

> <s_m_source_file>
sdf/inactives_sanitized.sdf

> <i_m_source_file_index>
117

> <i_lp_mmshare_version>
49012

> <i_f3d_flags>
0

> <s_epik_input>
W0NIM11PQyg9TylbTkhdYyhbY0hdW2NIXTEpW2NIXWMoYzEyKVtOSF1DKD1PKVtDSDJdW0NIMl1bQ0gyXVtDSDJdW0NAQEhdKGMzbmMyW2NIXVtuSF0zKVtOSF1DKD1PKS9bQ0hdPVtDSF0vYzRbY0hdYyhDbClbY0hdW2NIXWM0LW41W2NIXW5ubjU=

> <s_epik_cmdline>
J2VwaWtfcHl0aG9uJywgJy1waHQnLCAnMC41JywgJy1waCcsICc3LjUnLCAnLW50JywgJy1tYScsICcyMDAnLCAnLWltYWUnLCAnPGluZmlsZS5tYWU+JywgJy1vbWFlJywgJzxvdXRmaWxlLm1hZT4n

> <r_lp_tautomer_probability>
0.499999999999999

> <r_epik_Ionization_Penalty>
  0.1600

> <r_epik_Ionization_Penalty_Charging>
  0.1600

> <r_epik_Ionization_Penalty_Neutral>
  0.0000

> <r_epik_State_Penalty>
  0.4807

> <r_epik_Charging_Adjusted_Penalty>
0.640716493692316

> <i_epik_Tot_Q>
0

> <i_epik_Tot_abs_Q>
0

> <s_epik_Chemistry_Notes>
This compound has an ester and may undergo hydrolysis at high or low pH.

> <s_lp_Force_Field>
OPLS3e

> <r_lp_Energy>
64.030427

> <b_lp_Chiralities_Consistent>
1

> <s_lp_Variant>
sdf/inactives_sanitized.sdf:117-1

$$$$
sdf/inactives_sanitized.sdf:117
                    3D
 Schrodinger Suite 2020-1.
 67 71  0  0  1  0            999 V2000
   -4.5958    0.1934  -11.7080 C   0  0  0  0  0  0
   -4.0495    0.6908  -10.4944 O   0  0  0  0  0  0
   -3.6955   -0.1484   -9.5006 C   0  0  0  0  0  0
   -3.8060   -1.3752   -9.5537 O   0  0  0  0  0  0
   -3.1922    0.6094   -8.4475 N   0  0  0  0  0  0
   -2.7138    0.1896   -7.1948 C   0  0  0  0  0  0
   -2.8173   -1.1185   -6.7041 C   0  0  0  0  0  0
   -2.3094   -1.4385   -5.4475 C   0  0  0  0  0  0
   -1.6929   -0.4716   -4.6440 C   0  0  0  0  0  0
   -1.6075    0.8564   -5.1313 C   0  0  0  0  0  0
   -0.9612    1.9114   -4.4627 N   0  0  0  0  0  0
   -1.3440    2.5671   -3.3438 C   0  0  0  0  0  0
   -0.6525    3.4960   -2.9296 O   0  0  0  0  0  0
   -2.6397    2.1939   -2.5894 C   0  0  0  0  0  0
   -2.6601    2.5303   -1.0675 C   0  0  0  0  0  0
   -2.0744    1.4570   -0.1143 C   0  0  0  0  0  0
   -0.5237    1.3891   -0.0120 C   0  0  0  0  0  0
    0.0772   -0.0462   -0.0312 C   0  0  2  0  0  0
    1.5412    0.0050    0.0127 N   0  0  0  0  0  0
    2.3442   -0.9804    0.4547 C   0  0  0  0  0  0
    1.9240   -2.0344    0.9379 O   0  0  0  0  0  0
    3.7480   -0.6605    0.3300 C   0  0  0  0  0  0
    4.7266   -1.5221    0.6860 C   0  0  0  0  0  0
    6.1901   -1.2878    0.5754 C   0  0  0  0  0  0
    6.6766   -0.3070   -0.3047 C   0  0  0  0  0  0
    8.0446   -0.0862   -0.4576 C   0  0  0  0  0  0
    8.6077    1.1207   -1.5557 Cl  0  0  0  0  0  0
    8.9566   -0.8439    0.2703 C   0  0  0  0  0  0
    8.5005   -1.8165    1.1550 C   0  0  0  0  0  0
    7.1277   -2.0388    1.3237 C   0  0  0  0  0  0
    6.7456   -3.0229    2.2618 N   0  0  0  0  0  0
    7.2028   -4.3140    2.3903 C   0  0  0  0  0  0
    6.6501   -4.9062    3.4180 N   0  0  0  0  0  0
    5.8157   -3.9460    3.9820 N   0  0  0  0  0  0
    5.8904   -2.7674    3.2631 N   0  0  0  0  0  0
   -0.3936   -0.7988   -1.2665 C   0  0  0  0  0  0
   -0.3485   -0.2367   -2.5089 N   0  0  0  0  0  0
   -1.2083   -0.9370   -3.3045 C   0  0  0  0  0  0
   -1.5076   -2.0446   -2.5069 C   0  0  0  0  0  0
   -1.0160   -1.9519   -1.2801 N   0  0  0  0  0  0
   -2.1066    1.1643   -6.4013 C   0  0  0  0  0  0
   -4.8345    1.0231  -12.3732 H   0  0  0  0  0  0
   -5.5129   -0.3685  -11.5244 H   0  0  0  0  0  0
   -3.8859   -0.4589  -12.2188 H   0  0  0  0  0  0
   -3.1384    1.6040   -8.6122 H   0  0  0  0  0  0
   -3.2887   -1.9064   -7.2688 H   0  0  0  0  0  0
   -2.4030   -2.4586   -5.1043 H   0  0  0  0  0  0
   -0.1524    2.2811   -4.9410 H   0  0  0  0  0  0
   -3.4146    2.7921   -3.0704 H   0  0  0  0  0  0
   -2.9320    1.1574   -2.7493 H   0  0  0  0  0  0
   -2.2087    3.5026   -0.8633 H   0  0  0  0  0  0
   -3.7077    2.6546   -0.7892 H   0  0  0  0  0  0
   -2.4615    1.6438    0.8885 H   0  0  0  0  0  0
   -2.5000    0.4906   -0.3855 H   0  0  0  0  0  0
   -0.0681    1.9760   -0.8091 H   0  0  0  0  0  0
   -0.2135    1.8930    0.9049 H   0  0  0  0  0  0
   -0.2744   -0.5589    0.8680 H   0  0  0  0  0  0
    1.9709    0.7517   -0.5132 H   0  0  0  0  0  0
    3.9847    0.3174   -0.0651 H   0  0  0  0  0  0
    4.4404   -2.4914    1.0705 H   0  0  0  0  0  0
    5.9974    0.2851   -0.8996 H   0  0  0  0  0  0
   10.0176   -0.6778    0.1545 H   0  0  0  0  0  0
    9.2231   -2.3870    1.7211 H   0  0  0  0  0  0
    7.9224   -4.7237    1.6970 H   0  0  0  0  0  0
   -2.1454   -2.8706   -2.7849 H   0  0  0  0  0  0
   -2.0181    2.1749   -6.7774 H   0  0  0  0  0  0
    0.0396    0.6703   -2.7253 H   0  0  0  0  0  0
  1  2  1  0  0  0
  1 42  1  0  0  0
  1 43  1  0  0  0
  1 44  1  0  0  0
  2  3  1  0  0  0
  3  4  2  0  0  0
  3  5  1  0  0  0
  5  6  1  0  0  0
  5 45  1  0  0  0
  6  7  2  0  0  0
  6 41  1  0  0  0
  7  8  1  0  0  0
  7 46  1  0  0  0
  8  9  2  0  0  0
  8 47  1  0  0  0
  9 10  1  0  0  0
  9 38  1  0  0  0
 10 11  1  0  0  0
 10 41  2  0  0  0
 11 12  1  0  0  0
 11 48  1  0  0  0
 12 13  2  0  0  0
 12 14  1  0  0  0
 14 15  1  0  0  0
 14 49  1  0  0  0
 14 50  1  0  0  0
 15 16  1  0  0  0
 15 51  1  0  0  0
 15 52  1  0  0  0
 16 17  1  0  0  0
 16 53  1  0  0  0
 16 54  1  0  0  0
 17 18  1  0  0  0
 17 55  1  0  0  0
 17 56  1  0  0  0
 18 19  1  0  0  0
 18 36  1  0  0  0
 18 57  1  0  0  0
 19 20  1  0  0  0
 19 58  1  0  0  0
 20 21  2  0  0  0
 20 22  1  0  0  0
 22 23  2  0  0  0
 22 59  1  0  0  0
 23 24  1  0  0  0
 23 60  1  0  0  0
 24 25  2  0  0  0
 24 30  1  0  0  0
 25 26  1  0  0  0
 25 61  1  0  0  0
 26 27  1  0  0  0
 26 28  2  0  0  0
 28 29  1  0  0  0
 28 62  1  0  0  0
 29 30  2  0  0  0
 29 63  1  0  0  0
 30 31  1  0  0  0
 31 32  1  0  0  0
 31 35  1  0  0  0
 32 33  2  0  0  0
 32 64  1  0  0  0
 33 34  1  0  0  0
 34 35  2  0  0  0
 36 37  1  0  0  0
 36 40  2  0  0  0
 37 38  1  0  0  0
 37 67  1  0  0  0
 38 39  2  0  0  0
 39 40  1  0  0  0
 39 65  1  0  0  0
 41 66  1  0  0  0
M  END
> <chembl_id>
CHEMBL3676167

> <chembl_pref_name>
None

> <i_m_ct_stereo_status>
1

> <s_m_source_file>
sdf/inactives_sanitized.sdf

> <i_m_source_file_index>
117

> <i_lp_mmshare_version>
49012

> <i_f3d_flags>
0

> <s_epik_input>
W0NIM11PQyg9TylbTkhdYyhbY0hdW2NIXTEpW2NIXWMoYzEyKVtOSF1DKD1PKVtDSDJdW0NIMl1bQ0gyXVtDSDJdW0NAQEhdKGMzbmMyW2NIXVtuSF0zKVtOSF1DKD1PKS9bQ0hdPVtDSF0vYzRbY0hdYyhDbClbY0hdW2NIXWM0LW41W2NIXW5ubjU=

> <s_epik_cmdline>
J2VwaWtfcHl0aG9uJywgJy1waHQnLCAnMC41JywgJy1waCcsICc3LjUnLCAnLW50JywgJy1tYScsICcyMDAnLCAnLWltYWUnLCAnPGluZmlsZS5tYWU+JywgJy1vbWFlJywgJzxvdXRmaWxlLm1hZT4n

> <r_lp_tautomer_probability>
0.499999999999999

> <r_epik_Ionization_Penalty>
  0.1818

> <r_epik_Ionization_Penalty_Charging>
  0.1818

> <r_epik_Ionization_Penalty_Neutral>
  0.0000

> <r_epik_State_Penalty>
  0.5117

> <r_epik_Charging_Adjusted_Penalty>
0.693569500736305

> <i_epik_Tot_Q>
0

> <i_epik_Tot_abs_Q>
0

> <s_epik_Chemistry_Notes>
This compound has an ester and may undergo hydrolysis at high or low pH.

> <s_lp_Force_Field>
OPLS3e

> <r_lp_Energy>
63.171621

> <b_lp_Chiralities_Consistent>
1

> <s_lp_Variant>
sdf/inactives_sanitized.sdf:117-2

$$$$
sdf/inactives_sanitized.sdf:118
                    3D
 Schrodinger Suite 2020-1.
 58 59  0  0  1  0            999 V2000
    0.6932    2.8323    0.5508 C   0  0  0  0  0  0
   -0.1343    1.6981    0.5522 C   0  0  0  0  0  0
   -1.4627    1.8183    1.0138 C   0  0  0  0  0  0
   -1.9193    3.0657    1.4672 C   0  0  0  0  0  0
   -1.0828    4.1798    1.4611 C   0  0  0  0  0  0
    0.2250    4.0635    1.0009 C   0  0  0  0  0  0
    1.2703    5.4372    0.9937 Cl  0  0  0  0  0  0
   -2.4018    0.6084    1.0195 C   0  0  0  0  0  0
   -3.9054    0.9112    1.0513 N   0  3  0  0  0  0
    0.4399    0.3419    0.1079 C   0  0  0  0  0  0
    1.8827    0.1763    0.3016 N   0  0  0  0  0  0
    2.4891   -0.0078    1.4896 C   0  0  0  0  0  0
    4.0375    0.0116    1.4696 C   0  0  1  0  0  0
    1.8689   -0.1661    2.5430 O   0  0  0  0  0  0
    4.5262    1.3799    1.1227 N   0  0  0  0  0  0
    4.9684    1.6506   -0.1437 C   0  0  0  0  0  0
    5.4731    3.0773   -0.5167 C   0  0  1  0  0  0
    4.9733    0.7778   -1.0137 O   0  0  0  0  0  0
    6.3252    3.2519   -1.8353 C   0  0  0  0  0  0
    4.3373    3.9325   -0.5398 O   0  0  0  0  0  0
    5.5095    2.9750   -3.1279 C   0  0  0  0  0  0
    7.5752    2.3327   -1.8213 C   0  0  0  0  0  0
    6.8411    4.7138   -1.9106 C   0  0  0  0  0  0
    4.7098   -0.4627    2.7901 C   0  0  0  0  0  0
    4.5350    0.5777    3.9057 N   0  3  0  0  0  0
    5.1341    1.9184    3.4597 C   0  0  0  0  0  0
    4.4192    2.4132    2.1857 C   0  0  0  0  0  0
    1.7123    2.7648    0.1986 H   0  0  0  0  0  0
   -2.9271    3.1877    1.8355 H   0  0  0  0  0  0
   -1.4517    5.1319    1.8149 H   0  0  0  0  0  0
   -2.3018    0.0155    0.1094 H   0  0  0  0  0  0
   -2.2276   -0.0289    1.8872 H   0  0  0  0  0  0
   -4.4318    0.0492    1.0302 H   0  0  0  0  0  0
   -4.1656    1.4664    0.2485 H   0  0  0  0  0  0
   -0.0588   -0.4791    0.6254 H   0  0  0  0  0  0
    0.2209    0.2170   -0.9529 H   0  0  0  0  0  0
    2.4600    0.3098   -0.5168 H   0  0  0  0  0  0
    4.2840   -0.7200    0.6977 H   0  0  0  0  0  0
    6.1152    3.4111    0.2989 H   0  0  0  0  0  0
    3.9267    3.9264    0.3273 H   0  0  0  0  0  0
    6.0962    3.1938   -4.0212 H   0  0  0  0  0  0
    4.6113    3.5913   -3.1802 H   0  0  0  0  0  0
    5.1948    1.9362   -3.2142 H   0  0  0  0  0  0
    7.3193    1.2757   -1.8886 H   0  0  0  0  0  0
    8.1602    2.4681   -0.9106 H   0  0  0  0  0  0
    8.2367    2.5433   -2.6631 H   0  0  0  0  0  0
    7.4717    4.8763   -2.7861 H   0  0  0  0  0  0
    7.4349    4.9765   -1.0342 H   0  0  0  0  0  0
    6.0226    5.4323   -1.9738 H   0  0  0  0  0  0
    4.2792   -1.3872    3.1782 H   0  0  0  0  0  0
    5.7858   -0.6063    2.6775 H   0  0  0  0  0  0
    3.5527    0.6902    4.1154 H   0  0  0  0  0  0
    4.9742    2.5939    4.3005 H   0  0  0  0  0  0
    6.2082    1.7778    3.3259 H   0  0  0  0  0  0
    4.8319    3.3817    1.9140 H   0  0  0  0  0  0
    3.3656    2.5852    2.4111 H   0  0  0  0  0  0
   -4.1443    1.4124    1.8949 H   0  0  0  0  0  0
    4.9927    0.2578    4.7478 H   0  0  0  0  0  0
  1  2  2  0  0  0
  1  6  1  0  0  0
  1 28  1  0  0  0
  2  3  1  0  0  0
  2 10  1  0  0  0
  3  4  2  0  0  0
  3  8  1  0  0  0
  4  5  1  0  0  0
  4 29  1  0  0  0
  5  6  2  0  0  0
  5 30  1  0  0  0
  6  7  1  0  0  0
  8  9  1  0  0  0
  8 31  1  0  0  0
  8 32  1  0  0  0
  9 33  1  0  0  0
  9 34  1  0  0  0
  9 57  1  0  0  0
 10 11  1  0  0  0
 10 35  1  0  0  0
 10 36  1  0  0  0
 11 12  1  0  0  0
 11 37  1  0  0  0
 12 13  1  0  0  0
 12 14  2  0  0  0
 13 15  1  0  0  0
 13 24  1  0  0  0
 13 38  1  0  0  0
 15 16  1  0  0  0
 15 27  1  0  0  0
 16 17  1  0  0  0
 16 18  2  0  0  0
 17 19  1  0  0  0
 17 20  1  0  0  0
 17 39  1  0  0  0
 19 21  1  0  0  0
 19 22  1  0  0  0
 19 23  1  0  0  0
 20 40  1  0  0  0
 21 41  1  0  0  0
 21 42  1  0  0  0
 21 43  1  0  0  0
 22 44  1  0  0  0
 22 45  1  0  0  0
 22 46  1  0  0  0
 23 47  1  0  0  0
 23 48  1  0  0  0
 23 49  1  0  0  0
 24 25  1  0  0  0
 24 50  1  0  0  0
 24 51  1  0  0  0
 25 26  1  0  0  0
 25 52  1  0  0  0
 25 58  1  0  0  0
 26 27  1  0  0  0
 26 53  1  0  0  0
 26 54  1  0  0  0
 27 55  1  0  0  0
 27 56  1  0  0  0
M  CHG  2   9   1  25   1
M  END
> <chembl_id>
CHEMBL3114558

> <chembl_pref_name>
None

> <i_m_ct_stereo_status>
1

> <s_m_source_file>
sdf/inactives_sanitized.sdf

> <i_m_source_file_index>
118

> <i_lp_mmshare_version>
49012

> <i_f3d_flags>
0

> <s_epik_input>
W05IMl1bQ0gyXWMxW2NIXVtjSF1jKENsKVtjSF1jMVtDSDJdW05IXUMoPU8pW0NASF0yTihDKD1PKVtDQEhdKFtPSF0pQyhbQ0gzXSkoW0NIM10pW0NIM10pW0NIMl1bQ0gyXVtOSF1bQ0gyXTI=

> <s_epik_cmdline>
J2VwaWtfcHl0aG9uJywgJy1waHQnLCAnMC41JywgJy1waCcsICc3LjUnLCAnLW50JywgJy1tYScsICcyMDAnLCAnLWltYWUnLCAnPGluZmlsZS5tYWU+JywgJy1vbWFlJywgJzxvdXRmaWxlLm1hZT4n

> <r_epik_Ionization_Penalty>
  0.4289

> <r_epik_Ionization_Penalty_Charging>
  0.4287

> <r_epik_Ionization_Penalty_Neutral>
  0.0002

> <r_epik_State_Penalty>
  0.4149

> <r_epik_Charging_Adjusted_Penalty>
0.843604549202654

> <i_epik_Tot_Q>
2

> <i_epik_Tot_abs_Q>
2

> <s_lp_Force_Field>
OPLS3e

> <r_lp_Energy>
48.331133

> <b_lp_Chiralities_Consistent>
1

> <s_lp_Variant>
sdf/inactives_sanitized.sdf:118-1

$$$$
sdf/inactives_sanitized.sdf:118
                    3D
 Schrodinger Suite 2020-1.
 57 58  0  0  1  0            999 V2000
   -1.2400    1.8156    1.0330 C   0  0  0  0  0  0
   -0.5413    1.2906   -0.0612 C   0  0  0  0  0  0
   -0.6370    1.9338   -1.3136 C   0  0  0  0  0  0
   -1.4185    3.0890   -1.4345 C   0  0  0  0  0  0
   -2.0954    3.6091   -0.3336 C   0  0  0  0  0  0
   -2.0074    2.9715    0.9013 C   0  0  0  0  0  0
   -2.8499    3.6095    2.2658 Cl  0  0  0  0  0  0
    0.0493    1.3991   -2.5659 C   0  0  0  0  0  0
    1.4289    2.0162   -2.8034 N   0  3  0  0  0  0
    0.2675    0.0081    0.1439 C   0  0  0  0  0  0
    1.7154    0.1925    0.0395 N   0  0  0  0  0  0
    2.4908    0.7884    0.9683 C   0  0  0  0  0  0
    4.0108    0.8947    0.6602 C   0  0  1  0  0  0
    2.0359    1.2066    2.0346 O   0  0  0  0  0  0
    4.2558    1.4219   -0.7128 N   0  0  0  0  0  0
    4.4989    0.6235   -1.7971 C   0  0  0  0  0  0
    4.6081   -0.9219   -1.6311 C   0  0  1  0  0  0
    4.6507    1.1005   -2.9241 O   0  0  0  0  0  0
    4.2915   -1.8315   -2.8809 C   0  0  0  0  0  0
    5.8985   -1.1920   -1.1075 O   0  0  0  0  0  0
    5.3457   -1.7054   -4.0144 C   0  0  0  0  0  0
    2.8883   -1.5079   -3.4593 C   0  0  0  0  0  0
    4.2676   -3.3147   -2.4261 C   0  0  0  0  0  0
    4.8025    1.7577    1.6838 C   0  0  0  0  0  0
    4.5622    3.1874    1.5432 N   0  0  2  0  0  0
    4.9357    3.6319    0.2075 C   0  0  0  0  0  0
    4.1533    2.8929   -0.9029 C   0  0  0  0  0  0
   -1.1807    1.3301    1.9968 H   0  0  0  0  0  0
   -1.5054    3.5911   -2.3874 H   0  0  0  0  0  0
   -2.6918    4.5034   -0.4419 H   0  0  0  0  0  0
    0.2183    0.3231   -2.5545 H   0  0  0  0  0  0
   -0.5059    1.6468   -3.4722 H   0  0  0  0  0  0
    1.8393    1.6389   -3.6459 H   0  0  0  0  0  0
    2.0413    1.8105   -2.0269 H   0  0  0  0  0  0
    0.0358   -0.4376    1.1142 H   0  0  0  0  0  0
   -0.0495   -0.7344   -0.5884 H   0  0  0  0  0  0
    2.1474   -0.1312   -0.8132 H   0  0  0  0  0  0
    4.3672   -0.1253    0.7889 H   0  0  0  0  0  0
    3.8946   -1.2282   -0.8685 H   0  0  0  0  0  0
    6.5019   -1.3337   -1.8411 H   0  0  0  0  0  0
    5.1467   -2.4140   -4.8197 H   0  0  0  0  0  0
    6.3549   -1.9099   -3.6559 H   0  0  0  0  0  0
    5.3579   -0.7178   -4.4726 H   0  0  0  0  0  0
    2.8423   -0.5149   -3.9061 H   0  0  0  0  0  0
    2.1179   -1.5543   -2.6882 H   0  0  0  0  0  0
    2.6050   -2.2138   -4.2415 H   0  0  0  0  0  0
    4.0107   -3.9864   -3.2466 H   0  0  0  0  0  0
    3.5358   -3.4820   -1.6346 H   0  0  0  0  0  0
    5.2365   -3.6378   -2.0434 H   0  0  0  0  0  0
    4.5727    1.4672    2.7096 H   0  0  0  0  0  0
    5.8723    1.5691    1.5790 H   0  0  0  0  0  0
    5.1030    3.6900    2.2331 H   0  0  0  0  0  0
    4.7967    4.7110    0.1393 H   0  0  0  0  0  0
    6.0057    3.4467    0.0971 H   0  0  0  0  0  0
    4.5455    3.2325   -1.8624 H   0  0  0  0  0  0
    3.1058    3.1886   -0.8357 H   0  0  0  0  0  0
    1.3497    3.0181   -2.9053 H   0  0  0  0  0  0
  1  2  2  0  0  0
  1  6  1  0  0  0
  1 28  1  0  0  0
  2  3  1  0  0  0
  2 10  1  0  0  0
  3  4  2  0  0  0
  3  8  1  0  0  0
  4  5  1  0  0  0
  4 29  1  0  0  0
  5  6  2  0  0  0
  5 30  1  0  0  0
  6  7  1  0  0  0
  8  9  1  0  0  0
  8 31  1  0  0  0
  8 32  1  0  0  0
  9 33  1  0  0  0
  9 34  1  0  0  0
  9 57  1  0  0  0
 10 11  1  0  0  0
 10 35  1  0  0  0
 10 36  1  0  0  0
 11 12  1  0  0  0
 11 37  1  0  0  0
 12 13  1  0  0  0
 12 14  2  0  0  0
 13 15  1  0  0  0
 13 24  1  0  0  0
 13 38  1  0  0  0
 15 16  1  0  0  0
 15 27  1  0  0  0
 16 17  1  0  0  0
 16 18  2  0  0  0
 17 19  1  0  0  0
 17 20  1  0  0  0
 17 39  1  0  0  0
 19 21  1  0  0  0
 19 22  1  0  0  0
 19 23  1  0  0  0
 20 40  1  0  0  0
 21 41  1  0  0  0
 21 42  1  0  0  0
 21 43  1  0  0  0
 22 44  1  0  0  0
 22 45  1  0  0  0
 22 46  1  0  0  0
 23 47  1  0  0  0
 23 48  1  0  0  0
 23 49  1  0  0  0
 24 25  1  0  0  0
 24 50  1  0  0  0
 24 51  1  0  0  0
 25 26  1  0  0  0
 25 52  1  0  0  0
 26 27  1  0  0  0
 26 53  1  0  0  0
 26 54  1  0  0  0
 27 55  1  0  0  0
 27 56  1  0  0  0
M  CHG  1   9   1
M  END
> <chembl_id>
CHEMBL3114558

> <chembl_pref_name>
None

> <i_m_ct_stereo_status>
1

> <s_m_source_file>
sdf/inactives_sanitized.sdf

> <i_m_source_file_index>
118

> <i_lp_mmshare_version>
49012

> <i_f3d_flags>
0

> <s_epik_input>
W05IMl1bQ0gyXWMxW2NIXVtjSF1jKENsKVtjSF1jMVtDSDJdW05IXUMoPU8pW0NASF0yTihDKD1PKVtDQEhdKFtPSF0pQyhbQ0gzXSkoW0NIM10pW0NIM10pW0NIMl1bQ0gyXVtOSF1bQ0gyXTI=

> <s_epik_cmdline>
J2VwaWtfcHl0aG9uJywgJy1waHQnLCAnMC41JywgJy1waCcsICc3LjUnLCAnLW50JywgJy1tYScsICcyMDAnLCAnLWltYWUnLCAnPGluZmlsZS5tYWU+JywgJy1vbWFlJywgJzxvdXRmaWxlLm1hZT4n

> <r_epik_Ionization_Penalty>
  0.5880

> <r_epik_Ionization_Penalty_Charging>
  0.0913

> <r_epik_Ionization_Penalty_Neutral>
  0.4966

> <r_epik_State_Penalty>
  0.5835

> <r_epik_Charging_Adjusted_Penalty>
0.67481892778691

> <i_epik_Tot_Q>
1

> <i_epik_Tot_abs_Q>
1

> <s_lp_Force_Field>
OPLS3e

> <r_lp_Energy>
43.101445

> <b_lp_Chiralities_Consistent>
1

> <s_lp_Variant>
sdf/inactives_sanitized.sdf:118-2

$$$$
sdf/inactives_sanitized.sdf:119
                    3D
 Schrodinger Suite 2020-1.
 55 56  0  0  1  0            999 V2000
    0.4045    2.9787    0.3338 C   0  0  0  0  0  0
   -0.3671    1.8098    0.3902 C   0  0  0  0  0  0
   -1.5414    1.8018    1.1726 C   0  0  0  0  0  0
   -1.9156    2.9601    1.8650 C   0  0  0  0  0  0
   -1.1338    4.1118    1.8025 C   0  0  0  0  0  0
    0.0297    4.1206    1.0380 C   0  0  0  0  0  0
    1.0099    5.5392    0.9657 Cl  0  0  0  0  0  0
   -2.4398    0.5762    1.2858 C   0  0  0  0  0  0
   -1.8911   -0.4772    2.2530 N   0  3  0  0  0  0
    0.1276    0.5732   -0.3746 C   0  0  0  0  0  0
    1.5352    0.2423   -0.1527 N   0  0  0  0  0  0
    2.0355   -0.1715    1.0237 C   0  0  0  0  0  0
    3.5686   -0.3204    1.0900 C   0  0  2  0  0  0
    1.3505   -0.4017    2.0213 O   0  0  0  0  0  0
    4.0190   -1.6163    1.7851 C   0  0  0  0  0  0
    4.2126   -1.2278    3.2416 C   0  0  0  0  0  0
    4.7313    0.2033    3.1550 C   0  0  0  0  0  0
    4.2012    0.7417    1.8976 N   0  0  0  0  0  0
    4.2782    2.0332    1.4851 C   0  0  0  0  0  0
    4.9874    3.0950    2.3740 C   0  0  1  0  0  0
    3.7961    2.3877    0.4061 O   0  0  0  0  0  0
    6.4337    3.5099    1.8993 C   0  0  0  0  0  0
    4.1429    4.2382    2.4250 O   0  0  0  0  0  0
    6.4366    4.1513    0.4848 C   0  0  0  0  0  0
    7.3854    2.2866    1.8777 C   0  0  0  0  0  0
    7.0316    4.5379    2.8951 C   0  0  0  0  0  0
    1.3074    3.0013   -0.2591 H   0  0  0  0  0  0
   -2.8149    2.9717    2.4639 H   0  0  0  0  0  0
   -1.4321    4.9951    2.3486 H   0  0  0  0  0  0
   -3.4243    0.8148    1.6918 H   0  0  0  0  0  0
   -2.5809    0.0607    0.3354 H   0  0  0  0  0  0
   -2.5009   -1.2820    2.2765 H   0  0  0  0  0  0
   -1.8268   -0.0930    3.1849 H   0  0  0  0  0  0
   -0.4626   -0.3183   -0.1680 H   0  0  0  0  0  0
   -0.0079    0.7687   -1.4388 H   0  0  0  0  0  0
    2.1707    0.4284   -0.9157 H   0  0  0  0  0  0
    3.9694   -0.3102    0.0743 H   0  0  0  0  0  0
    3.3209   -2.4461    1.6644 H   0  0  0  0  0  0
    4.9738   -1.9344    1.3641 H   0  0  0  0  0  0
    3.2492   -1.2355    3.7527 H   0  0  0  0  0  0
    4.8804   -1.8972    3.7843 H   0  0  0  0  0  0
    4.4178    0.7699    4.0320 H   0  0  0  0  0  0
    5.8199    0.2021    3.1116 H   0  0  0  0  0  0
    5.0498    2.7534    3.4056 H   0  0  0  0  0  0
    3.2945    3.9771    2.7905 H   0  0  0  0  0  0
    7.4310    4.5037    0.2073 H   0  0  0  0  0  0
    5.7660    5.0096    0.4269 H   0  0  0  0  0  0
    6.1288    3.4444   -0.2862 H   0  0  0  0  0  0
    7.0516    1.5174    1.1802 H   0  0  0  0  0  0
    7.4667    1.8265    2.8630 H   0  0  0  0  0  0
    8.3947    2.5691    1.5747 H   0  0  0  0  0  0
    8.0557    4.8074    2.6317 H   0  0  0  0  0  0
    7.0530    4.1448    3.9124 H   0  0  0  0  0  0
    6.4568    5.4648    2.9177 H   0  0  0  0  0  0
   -0.9714   -0.7753    1.9584 H   0  0  0  0  0  0
  1  2  2  0  0  0
  1  6  1  0  0  0
  1 27  1  0  0  0
  2  3  1  0  0  0
  2 10  1  0  0  0
  3  4  2  0  0  0
  3  8  1  0  0  0
  4  5  1  0  0  0
  4 28  1  0  0  0
  5  6  2  0  0  0
  5 29  1  0  0  0
  6  7  1  0  0  0
  8  9  1  0  0  0
  8 30  1  0  0  0
  8 31  1  0  0  0
  9 32  1  0  0  0
  9 33  1  0  0  0
  9 55  1  0  0  0
 10 11  1  0  0  0
 10 34  1  0  0  0
 10 35  1  0  0  0
 11 12  1  0  0  0
 11 36  1  0  0  0
 12 13  1  0  0  0
 12 14  2  0  0  0
 13 15  1  0  0  0
 13 18  1  0  0  0
 13 37  1  0  0  0
 15 16  1  0  0  0
 15 38  1  0  0  0
 15 39  1  0  0  0
 16 17  1  0  0  0
 16 40  1  0  0  0
 16 41  1  0  0  0
 17 18  1  0  0  0
 17 42  1  0  0  0
 17 43  1  0  0  0
 18 19  1  0  0  0
 19 20  1  0  0  0
 19 21  2  0  0  0
 20 22  1  0  0  0
 20 23  1  0  0  0
 20 44  1  0  0  0
 22 24  1  0  0  0
 22 25  1  0  0  0
 22 26  1  0  0  0
 23 45  1  0  0  0
 24 46  1  0  0  0
 24 47  1  0  0  0
 24 48  1  0  0  0
 25 49  1  0  0  0
 25 50  1  0  0  0
 25 51  1  0  0  0
 26 52  1  0  0  0
 26 53  1  0  0  0
 26 54  1  0  0  0
M  CHG  1   9   1
M  END
> <chembl_id>
CHEMBL3114560

> <chembl_pref_name>
None

> <i_m_ct_stereo_status>
1

> <s_m_source_file>
sdf/inactives_sanitized.sdf

> <i_m_source_file_index>
119

> <i_lp_mmshare_version>
49012

> <i_f3d_flags>
0

> <s_epik_input>
W05IMl1bQ0gyXWMxW2NIXVtjSF1jKENsKVtjSF1jMVtDSDJdW05IXUMoPU8pW0NAQEhdMltDSDJdW0NIMl1bQ0gyXU4yQyg9TylbQ0BIXShbT0hdKUMoW0NIM10pKFtDSDNdKVtDSDNd

> <s_epik_cmdline>
J2VwaWtfcHl0aG9uJywgJy1waHQnLCAnMC41JywgJy1waCcsICc3LjUnLCAnLW50JywgJy1tYScsICcyMDAnLCAnLWltYWUnLCAnPGluZmlsZS5tYWU+JywgJy1vbWFlJywgJzxvdXRmaWxlLm1hZT4n

> <r_epik_Ionization_Penalty>
  0.0912

> <r_epik_Ionization_Penalty_Charging>
  0.0912

> <r_epik_Ionization_Penalty_Neutral>
  0.0000

> <r_epik_State_Penalty>
  0.0815

> <r_epik_Charging_Adjusted_Penalty>
0.172749224963903

> <i_epik_Tot_Q>
1

> <i_epik_Tot_abs_Q>
1

> <s_lp_Force_Field>
OPLS3e

> <r_lp_Energy>
31.130837

> <b_lp_Chiralities_Consistent>
1

> <s_lp_Variant>
sdf/inactives_sanitized.sdf:119-1

$$$$
sdf/inactives_sanitized.sdf:120
                    3D
 Schrodinger Suite 2020-1.
 21 22  0  0  1  0            999 V2000
    0.0312   -0.0063   -0.0000 C   0  0  0  0  0  0
    1.4232   -0.0269   -0.0000 C   0  0  0  0  0  0
   -0.6503   -1.1460   -0.0000 N   0  0  0  0  0  0
   -0.5970    1.1636   -0.0000 N   0  3  0  0  0  0
    2.3272   -1.5420    0.0000 S   0  0  0  0  0  0
    3.8582   -0.6864    0.0000 C   0  0  0  0  0  0
    3.6668    0.7253    0.0000 C   0  0  0  0  0  0
    2.2836    1.0656   -0.0000 C   0  0  0  0  0  0
    5.1398   -1.2565    0.0000 C   0  0  0  0  0  0
    6.2402   -0.4046    0.0000 C   0  0  0  0  0  0
    6.0770    0.9762    0.0000 C   0  0  0  0  0  0
    4.8075    1.5537    0.0000 C   0  0  0  0  0  0
    4.6326    3.6409    0.0000 I   0  0  0  0  0  0
   -1.6595   -1.1301   -0.0000 H   0  0  0  0  0  0
   -0.1538   -2.0252   -0.0000 H   0  0  0  0  0  0
   -1.6060    1.1924   -0.0000 H   0  0  0  0  0  0
    1.9402    2.0892   -0.0000 H   0  0  0  0  0  0
    5.2758   -2.3283    0.0000 H   0  0  0  0  0  0
    7.2371   -0.8210    0.0000 H   0  0  0  0  0  0
    6.9516    1.6106    0.0000 H   0  0  0  0  0  0
   -0.0632    2.0201    0.0000 H   0  0  0  0  0  0
  1  2  1  0  0  0
  1  3  1  0  0  0
  1  4  2  0  0  0
  2  5  1  0  0  0
  2  8  2  0  0  0
  3 14  1  0  0  0
  3 15  1  0  0  0
  4 16  1  0  0  0
  4 21  1  0  0  0
  5  6  1  0  0  0
  6  7  2  0  0  0
  6  9  1  0  0  0
  7  8  1  0  0  0
  7 12  1  0  0  0
  8 17  1  0  0  0
  9 10  2  0  0  0
  9 18  1  0  0  0
 10 11  1  0  0  0
 10 19  1  0  0  0
 11 12  2  0  0  0
 11 20  1  0  0  0
 12 13  1  0  0  0
M  CHG  1   4   1
M  END
> <chembl_id>
CHEMBL60088

> <chembl_pref_name>
None

> <s_m_source_file>
sdf/inactives_sanitized.sdf

> <i_m_source_file_index>
120

> <i_lp_mmshare_version>
49012

> <i_m_ct_stereo_status>
1

> <i_f3d_flags>
0

> <s_epik_input>
W0hdXE49QyhbTkgyXSlcYyhzMSlbY0hdYyhjMTIpYyhJKVtjSF1bY0hdW2NIXTI=

> <s_epik_cmdline>
J2VwaWtfcHl0aG9uJywgJy1waHQnLCAnMC41JywgJy1waCcsICc3LjUnLCAnLW50JywgJy1tYScsICcyMDAnLCAnLWltYWUnLCAnPGluZmlsZS5tYWU+JywgJy1vbWFlJywgJzxvdXRmaWxlLm1hZT4n

> <r_lp_tautomer_probability>
1

> <r_epik_Ionization_Penalty>
  0.0095

> <r_epik_Ionization_Penalty_Charging>
  0.0095

> <r_epik_Ionization_Penalty_Neutral>
  0.0000

> <r_epik_State_Penalty>
 -0.0000

> <r_epik_Charging_Adjusted_Penalty>
0.00945881282357717

> <i_epik_Tot_Q>
1

> <i_epik_Tot_abs_Q>
1

> <s_epik_Chemistry_Notes>
This compound has an imine and may undergo hydrolysis.

> <s_lp_Force_Field>
OPLS3e

> <r_lp_Energy>
8.538041

> <b_lp_Chiralities_Consistent>
1

> <s_lp_Variant>
sdf/inactives_sanitized.sdf:120-1

$$$$
sdf/inactives_sanitized.sdf:121
                    3D
 Schrodinger Suite 2020-1.
 52 56  0  0  1  0            999 V2000
   -0.7012   -1.7198    5.8156 C   0  0  0  0  0  0
   -0.5039   -0.5416    6.5310 C   0  0  0  0  0  0
   -0.3140    0.6641    5.8577 C   0  0  0  0  0  0
   -0.7125   -1.7217    4.4187 C   0  0  0  0  0  0
   -0.5207   -0.5118    3.7202 C   0  0  0  0  0  0
   -0.3257    0.6575    4.4805 N   0  0  0  0  0  0
   -0.1635    1.7479    3.6915 N   0  0  0  0  0  0
   -0.4646   -0.0742    2.3711 C   0  0  0  0  0  0
   -0.2469    1.3116    2.4536 C   0  0  0  0  0  0
   -0.1253    2.2149    1.2309 C   0  0  0  0  0  0
   -0.6743    1.4404    0.0071 C   0  0  0  0  0  0
   -0.0585    0.0131   -0.1250 C   0  0  1  0  0  0
   -0.6372   -0.8299    1.0533 C   0  0  0  0  0  0
   -0.5151   -0.6483   -1.4519 C   0  0  0  0  0  0
    1.4182   -0.0169   -0.0780 N   0  0  0  0  0  0
    2.3002    0.5982   -0.8954 C   0  0  0  0  0  0
    3.7660    0.4060   -0.5673 C   0  0  0  0  0  0
    1.9583    1.2761   -1.8662 O   0  0  0  0  0  0
   -0.9100   -2.8909    3.7312 O   0  0  0  0  0  0
    4.7378    0.6974   -1.5338 C   0  0  0  0  0  0
    6.0916    0.5399   -1.2514 C   0  0  0  0  0  0
    6.5011    0.0911    0.0089 C   0  0  0  0  0  0
    5.5354   -0.2019    0.9808 C   0  0  0  0  0  0
    4.1823   -0.0452    0.6950 C   0  0  0  0  0  0
    7.8826   -0.0591    0.2908 N   0  0  0  0  0  0
    8.9599    0.5312   -0.3328 C   0  0  0  0  0  0
   10.0733    0.0443    0.3309 C   0  0  0  0  0  0
    9.7077   -0.7825    1.2894 N   0  0  0  0  0  0
    8.3262   -0.8579    1.2783 N   0  0  0  0  0  0
   -0.1000    1.9685    6.6121 C   0  0  0  0  0  0
   -0.8487   -2.6440    6.3557 H   0  0  0  0  0  0
   -0.5010   -0.5697    7.6112 H   0  0  0  0  0  0
   -0.6815    3.1436    1.3636 H   0  0  0  0  0  0
    0.9168    2.4907    1.0656 H   0  0  0  0  0  0
   -1.7646    1.3917    0.0351 H   0  0  0  0  0  0
   -0.4280    2.0311   -0.8763 H   0  0  0  0  0  0
   -0.1480   -1.8045    1.0989 H   0  0  0  0  0  0
   -1.6978   -1.0362    0.9016 H   0  0  0  0  0  0
   -1.6022   -0.7195   -1.5052 H   0  0  0  0  0  0
   -0.1213   -1.6609   -1.5531 H   0  0  0  0  0  0
   -0.1985   -0.0845   -2.3294 H   0  0  0  0  0  0
    1.8022   -0.5367    0.6972 H   0  0  0  0  0  0
   -1.0340   -3.6503    4.3054 H   0  0  0  0  0  0
    4.4542    1.0457   -2.5171 H   0  0  0  0  0  0
    6.8106    0.7655   -2.0250 H   0  0  0  0  0  0
    5.8222   -0.5443    1.9647 H   0  0  0  0  0  0
    3.4678   -0.2710    1.4736 H   0  0  0  0  0  0
    8.8432    1.2213   -1.1549 H   0  0  0  0  0  0
   11.1076    0.2810    0.1288 H   0  0  0  0  0  0
   -0.1177    1.8180    7.6921 H   0  0  0  0  0  0
   -0.8809    2.6866    6.3593 H   0  0  0  0  0  0
    0.8632    2.4068    6.3489 H   0  0  0  0  0  0
  1  2  1  0  0  0
  1  4  2  0  0  0
  1 31  1  0  0  0
  2  3  2  0  0  0
  2 32  1  0  0  0
  3  6  1  0  0  0
  3 30  1  0  0  0
  4  5  1  0  0  0
  4 19  1  0  0  0
  5  6  1  0  0  0
  5  8  2  0  0  0
  6  7  1  0  0  0
  7  9  2  0  0  0
  8  9  1  0  0  0
  8 13  1  0  0  0
  9 10  1  0  0  0
 10 11  1  0  0  0
 10 33  1  0  0  0
 10 34  1  0  0  0
 11 12  1  0  0  0
 11 35  1  0  0  0
 11 36  1  0  0  0
 12 13  1  0  0  0
 12 14  1  0  0  0
 12 15  1  0  0  0
 13 37  1  0  0  0
 13 38  1  0  0  0
 14 39  1  0  0  0
 14 40  1  0  0  0
 14 41  1  0  0  0
 15 16  1  0  0  0
 15 42  1  0  0  0
 16 17  1  0  0  0
 16 18  2  0  0  0
 17 20  2  0  0  0
 17 24  1  0  0  0
 19 43  1  0  0  0
 20 21  1  0  0  0
 20 44  1  0  0  0
 21 22  2  0  0  0
 21 45  1  0  0  0
 22 23  1  0  0  0
 22 25  1  0  0  0
 23 24  2  0  0  0
 23 46  1  0  0  0
 24 47  1  0  0  0
 25 26  1  0  0  0
 25 29  1  0  0  0
 26 27  2  0  0  0
 26 48  1  0  0  0
 27 28  1  0  0  0
 27 49  1  0  0  0
 28 29  2  0  0  0
 30 50  1  0  0  0
 30 51  1  0  0  0
 30 52  1  0  0  0
M  END
> <chembl_id>
CHEMBL3423045

> <chembl_pref_name>
None

> <s_m_source_file>
sdf/inactives_sanitized.sdf

> <i_m_source_file_index>
121

> <i_lp_mmshare_version>
49012

> <i_m_ct_stereo_status>
1

> <i_f3d_flags>
0

> <s_epik_input>
W09IXWMxW2NIXVtjSF1jKFtDSDNdKW4oYzEyKW5jM2MyW0NIMl1bQ0BAXShbQ0gzXSkoW0NIMl1bQ0gyXTMpW05IXUMoPU8pYzRbY0hdW2NIXWMoW2NIXVtjSF00KS1uNVtjSF1bY0hdbm41

> <s_epik_cmdline>
J2VwaWtfcHl0aG9uJywgJy1waHQnLCAnMC41JywgJy1waCcsICc3LjUnLCAnLW50JywgJy1tYScsICcyMDAnLCAnLWltYWUnLCAnPGluZmlsZS5tYWU+JywgJy1vbWFlJywgJzxvdXRmaWxlLm1hZT4n

> <r_lp_tautomer_probability>
1

> <r_epik_Ionization_Penalty>
  0.0172

> <r_epik_Ionization_Penalty_Charging>
  0.0000

> <r_epik_Ionization_Penalty_Neutral>
  0.0172

> <r_epik_State_Penalty>
  0.0136

> <r_epik_Charging_Adjusted_Penalty>
0.0135721177526746

> <i_epik_Tot_Q>
0

> <i_epik_Tot_abs_Q>
0

> <s_lp_Force_Field>
OPLS3e

> <r_lp_Energy>
31.92567

> <b_lp_Chiralities_Consistent>
1

> <s_lp_Variant>
sdf/inactives_sanitized.sdf:121-1

$$$$
sdf/inactives_sanitized.sdf:122
                    3D
 Schrodinger Suite 2020-1.
 47 50  0  0  1  0            999 V2000
   -0.7850    2.1991   -1.3394 N   0  0  0  0  0  0
   -1.2778    3.3843    0.4428 C   0  0  0  0  0  0
   -1.7003    4.5034    1.1704 C   0  0  0  0  0  0
   -1.5981    4.5901   -1.6816 C   0  0  0  0  0  0
   -2.0180    5.6991   -0.9346 C   0  0  0  0  0  0
   -2.0689    5.6595    0.4726 C   0  0  0  0  0  0
   -1.2347    3.4456   -0.9700 C   0  0  0  0  0  0
   -0.5899    1.4768   -0.1851 C   0  0  0  0  0  0
   -0.8698    2.1577    0.8990 N   0  0  0  0  0  0
   -0.0715    0.0543   -0.1915 C   0  0  0  0  0  0
    1.4574   -0.0028   -0.0062 C   0  0  0  0  0  0
    2.0007   -1.3576   -0.0881 N   0  0  0  0  0  0
    1.9518   -2.2784    0.8948 C   0  0  0  0  0  0
    2.5655   -3.6301    0.5902 C   0  0  0  0  0  0
    1.4474   -2.0482    1.9962 O   0  0  0  0  0  0
    2.7388   -4.5673    1.6198 C   0  0  0  0  0  0
    3.2958   -5.8193    1.3640 C   0  0  0  0  0  0
    3.6889   -6.1661    0.0672 C   0  0  0  0  0  0
    3.5244   -5.2396   -0.9722 C   0  0  0  0  0  0
    2.9677   -3.9877   -0.7087 C   0  0  0  0  0  0
    4.2437   -7.4409   -0.1699 N   0  0  0  0  0  0
    5.1074   -8.1617    0.6241 C   0  0  0  0  0  0
    5.4143   -9.3192    0.0941 N   0  0  0  0  0  0
    4.7268   -9.4020   -1.1128 N   0  0  0  0  0  0
    4.0497   -8.2881   -1.2381 C   0  0  0  0  0  0
   -2.5318    6.8691    1.2749 C   0  0  0  0  0  0
   -2.4148    6.9604   -1.6915 C   0  0  0  0  0  0
    3.9110   -5.5290   -2.2373 F   0  0  0  0  0  0
   -0.6145    1.8322   -2.2644 H   0  0  0  0  0  0
   -1.7391    4.4714    2.2498 H   0  0  0  0  0  0
   -1.5576    4.6188   -2.7608 H   0  0  0  0  0  0
   -0.5555   -0.5165    0.6028 H   0  0  0  0  0  0
   -0.3489   -0.4449   -1.1212 H   0  0  0  0  0  0
    1.9392    0.5881   -0.7863 H   0  0  0  0  0  0
    1.7460    0.4669    0.9368 H   0  0  0  0  0  0
    2.4513   -1.6057   -0.9565 H   0  0  0  0  0  0
    2.4430   -4.3353    2.6333 H   0  0  0  0  0  0
    3.4099   -6.5182    2.1805 H   0  0  0  0  0  0
    2.8539   -3.3018   -1.5357 H   0  0  0  0  0  0
    5.4625   -7.7610    1.5623 H   0  0  0  0  0  0
    3.3937   -8.0155   -2.0517 H   0  0  0  0  0  0
   -3.5180    7.1920    0.9397 H   0  0  0  0  0  0
   -1.8457    7.7048    1.1334 H   0  0  0  0  0  0
   -2.6001    6.6575    2.3429 H   0  0  0  0  0  0
   -1.8473    7.8173   -1.3266 H   0  0  0  0  0  0
   -3.4729    7.1771   -1.5412 H   0  0  0  0  0  0
   -2.2288    6.8776   -2.7634 H   0  0  0  0  0  0
  1  7  1  0  0  0
  1  8  1  0  0  0
  1 29  1  0  0  0
  2  3  2  0  0  0
  2  7  1  0  0  0
  2  9  1  0  0  0
  3  6  1  0  0  0
  3 30  1  0  0  0
  4  7  2  0  0  0
  4  5  1  0  0  0
  4 31  1  0  0  0
  5  6  2  0  0  0
  5 27  1  0  0  0
  6 26  1  0  0  0
  8  9  2  0  0  0
  8 10  1  0  0  0
 10 11  1  0  0  0
 10 32  1  0  0  0
 10 33  1  0  0  0
 11 12  1  0  0  0
 11 34  1  0  0  0
 11 35  1  0  0  0
 12 13  1  0  0  0
 12 36  1  0  0  0
 13 14  1  0  0  0
 13 15  2  0  0  0
 14 16  2  0  0  0
 14 20  1  0  0  0
 16 17  1  0  0  0
 16 37  1  0  0  0
 17 18  2  0  0  0
 17 38  1  0  0  0
 18 19  1  0  0  0
 18 21  1  0  0  0
 19 20  2  0  0  0
 19 28  1  0  0  0
 20 39  1  0  0  0
 21 22  1  0  0  0
 21 25  1  0  0  0
 22 23  2  0  0  0
 22 40  1  0  0  0
 23 24  1  0  0  0
 24 25  2  0  0  0
 25 41  1  0  0  0
 26 42  1  0  0  0
 26 43  1  0  0  0
 26 44  1  0  0  0
 27 45  1  0  0  0
 27 46  1  0  0  0
 27 47  1  0  0  0
M  END
> <chembl_id>
CHEMBL3423038

> <chembl_pref_name>
None

> <s_m_source_file>
sdf/inactives_sanitized.sdf

> <i_m_source_file_index>
122

> <i_lp_mmshare_version>
49012

> <i_m_ct_stereo_status>
1

> <i_f3d_flags>
0

> <s_epik_input>
W2NIXTFjKFtDSDNdKWMoW0NIM10pW2NIXWMoYzEyKVtuSF1jKG4yKVtDSDJdW0NIMl1bTkhdQyg9TyljM1tjSF1bY0hdYyhjKEYpW2NIXTMpLW40W2NIXW5uW2NIXTQ=

> <s_epik_cmdline>
J2VwaWtfcHl0aG9uJywgJy1waHQnLCAnMC41JywgJy1waCcsICc3LjUnLCAnLW50JywgJy1tYScsICcyMDAnLCAnLWltYWUnLCAnPGluZmlsZS5tYWU+JywgJy1vbWFlJywgJzxvdXRmaWxlLm1hZT4n

> <r_lp_tautomer_probability>
1

> <r_epik_Ionization_Penalty>
  0.0235

> <r_epik_Ionization_Penalty_Charging>
  0.0000

> <r_epik_Ionization_Penalty_Neutral>
  0.0235

> <r_epik_State_Penalty>
  0.0190

> <r_epik_Charging_Adjusted_Penalty>
0.0189995681741242

> <i_epik_Tot_Q>
0

> <i_epik_Tot_abs_Q>
0

> <s_lp_Force_Field>
OPLS3e

> <r_lp_Energy>
21.649907

> <b_lp_Chiralities_Consistent>
1

> <s_lp_Variant>
sdf/inactives_sanitized.sdf:122-1

$$$$
sdf/inactives_sanitized.sdf:123
                    3D
 Schrodinger Suite 2020-1.
 47 50  0  0  1  0            999 V2000
    0.6011    1.5641   -4.0485 N   0  0  0  0  0  0
   -0.1386    0.4045   -3.9797 C   0  0  0  0  0  0
   -1.4237    0.6435   -3.9012 N   0  0  0  0  0  0
   -1.5767    2.0265   -3.9340 N   0  0  0  0  0  0
   -0.3735    2.5365   -4.0185 C   0  0  0  0  0  0
   -0.2812    2.3222    1.1510 N   0  0  0  0  0  0
   -1.6271    3.2863   -0.2912 C   0  0  0  0  0  0
   -2.3723    4.3215   -0.8673 C   0  0  0  0  0  0
   -0.8499    4.7816    1.5044 C   0  0  0  0  0  0
   -1.6025    5.8053    0.9124 C   0  0  0  0  0  0
   -2.3544    5.5812   -0.2579 C   0  0  0  0  0  0
   -0.8775    3.5324    0.8823 C   0  0  0  0  0  0
   -0.6778    1.4448    0.1681 C   0  0  0  0  0  0
   -1.4901    1.9874   -0.7028 N   0  0  0  0  0  0
   -0.1872    0.0114    0.0960 C   0  0  0  0  0  0
    1.3300   -0.1035   -0.1476 C   0  0  0  0  0  0
    1.7685    0.5869   -1.3625 N   0  0  0  0  0  0
    2.6102    0.0867   -2.2851 C   0  0  0  0  0  0
    2.9599    1.0167   -3.4230 C   0  0  0  0  0  0
    3.1206   -1.0326   -2.2138 O   0  0  0  0  0  0
    4.3200    1.1944   -3.7182 C   0  0  0  0  0  0
    4.7323    2.0685   -4.7210 C   0  0  0  0  0  0
    3.7888    2.7817   -5.4523 C   0  0  0  0  0  0
    2.4323    2.6105   -5.1902 C   0  0  0  0  0  0
    1.9997    1.7257   -4.1920 C   0  0  0  0  0  0
   -3.1676    6.7012   -0.8946 C   0  0  0  0  0  0
   -1.5846    7.1780    1.5726 C   0  0  0  0  0  0
    0.3428   -0.5619   -4.0054 H   0  0  0  0  0  0
   -0.1126    3.5835   -4.0686 H   0  0  0  0  0  0
    0.3445    2.0736    1.9035 H   0  0  0  0  0  0
   -2.9471    4.1465   -1.7655 H   0  0  0  0  0  0
   -0.2712    4.9518    2.4007 H   0  0  0  0  0  0
   -0.4362   -0.5092    1.0212 H   0  0  0  0  0  0
   -0.7123   -0.5388   -0.6871 H   0  0  0  0  0  0
    1.8715    0.3433    0.6874 H   0  0  0  0  0  0
    1.6071   -1.1599   -0.1556 H   0  0  0  0  0  0
    1.4485    1.5383   -1.4730 H   0  0  0  0  0  0
    5.0769    0.6637   -3.1570 H   0  0  0  0  0  0
    5.7848    2.1952   -4.9276 H   0  0  0  0  0  0
    4.1077    3.4595   -6.2305 H   0  0  0  0  0  0
    1.7170    3.1566   -5.7890 H   0  0  0  0  0  0
   -3.9158    7.0724   -0.1938 H   0  0  0  0  0  0
   -3.6837    6.3775   -1.7995 H   0  0  0  0  0  0
   -2.5201    7.5377   -1.1593 H   0  0  0  0  0  0
   -2.5952    7.4802    1.8480 H   0  0  0  0  0  0
   -1.1942    7.9258    0.8818 H   0  0  0  0  0  0
   -0.9708    7.1983    2.4743 H   0  0  0  0  0  0
  1  2  1  0  0  0
  1  5  1  0  0  0
  1 25  1  0  0  0
  2  3  2  0  0  0
  2 28  1  0  0  0
  3  4  1  0  0  0
  4  5  2  0  0  0
  5 29  1  0  0  0
  6 12  1  0  0  0
  6 13  1  0  0  0
  6 30  1  0  0  0
  7  8  2  0  0  0
  7 12  1  0  0  0
  7 14  1  0  0  0
  8 11  1  0  0  0
  8 31  1  0  0  0
  9 12  2  0  0  0
  9 10  1  0  0  0
  9 32  1  0  0  0
 10 11  2  0  0  0
 10 27  1  0  0  0
 11 26  1  0  0  0
 13 14  2  0  0  0
 13 15  1  0  0  0
 15 16  1  0  0  0
 15 33  1  0  0  0
 15 34  1  0  0  0
 16 17  1  0  0  0
 16 35  1  0  0  0
 16 36  1  0  0  0
 17 18  1  0  0  0
 17 37  1  0  0  0
 18 19  1  0  0  0
 18 20  2  0  0  0
 19 21  2  0  0  0
 19 25  1  0  0  0
 21 22  1  0  0  0
 21 38  1  0  0  0
 22 23  2  0  0  0
 22 39  1  0  0  0
 23 24  1  0  0  0
 23 40  1  0  0  0
 24 25  2  0  0  0
 24 41  1  0  0  0
 26 42  1  0  0  0
 26 43  1  0  0  0
 26 44  1  0  0  0
 27 45  1  0  0  0
 27 46  1  0  0  0
 27 47  1  0  0  0
M  END
> <chembl_id>
CHEMBL3423034

> <chembl_pref_name>
None

> <s_m_source_file>
sdf/inactives_sanitized.sdf

> <i_m_source_file_index>
123

> <i_lp_mmshare_version>
49012

> <i_m_ct_stereo_status>
1

> <i_f3d_flags>
0

> <s_epik_input>
W2NIXTFubltjSF1uMS1jMltjSF1bY0hdW2NIXVtjSF1jMkMoPU8pW05IXVtDSDJdW0NIMl1jKG4zKVtuSF1jKGMzNClbY0hdYyhbQ0gzXSljKFtjSF00KVtDSDNd

> <s_epik_cmdline>
J2VwaWtfcHl0aG9uJywgJy1waHQnLCAnMC41JywgJy1waCcsICc3LjUnLCAnLW50JywgJy1tYScsICcyMDAnLCAnLWltYWUnLCAnPGluZmlsZS5tYWU+JywgJy1vbWFlJywgJzxvdXRmaWxlLm1hZT4n

> <r_lp_tautomer_probability>
1

> <r_epik_Ionization_Penalty>
  0.0235

> <r_epik_Ionization_Penalty_Charging>
  0.0000

> <r_epik_Ionization_Penalty_Neutral>
  0.0235

> <r_epik_State_Penalty>
  0.0190

> <r_epik_Charging_Adjusted_Penalty>
0.0189995681741242

> <i_epik_Tot_Q>
0

> <i_epik_Tot_abs_Q>
0

> <s_lp_Force_Field>
OPLS3e

> <r_lp_Energy>
25.613471

> <b_lp_Chiralities_Consistent>
1

> <s_lp_Variant>
sdf/inactives_sanitized.sdf:123-1

$$$$
sdf/inactives_sanitized.sdf:124
                    3D
 Schrodinger Suite 2020-1.
 50 53  0  0  1  0            999 V2000
   -1.1831   -1.8712    1.1122 N   0  0  0  0  0  0
   -1.0090   -1.2258    3.2031 C   0  0  0  0  0  0
   -1.1251   -1.3198    4.5950 C   0  0  0  0  0  0
   -2.0124   -3.4580    2.9244 C   0  0  0  0  0  0
   -2.1192   -3.5327    4.3199 C   0  0  0  0  0  0
   -1.6819   -2.4794    5.1467 C   0  0  0  0  0  0
   -1.4528   -2.2957    2.3919 C   0  0  0  0  0  0
   -0.6132   -0.6219    1.2046 C   0  0  0  0  0  0
   -0.5002   -0.2047    2.4437 N   0  0  0  0  0  0
   -0.1121    0.1327   -0.0214 C   0  0  2  0  0  0
    1.4307    0.0715   -0.1599 C   0  0  0  0  0  0
    1.9688   -1.2919   -0.1966 N   0  0  0  0  0  0
    2.4781   -1.9598    0.8578 C   0  0  0  0  0  0
    2.8797   -3.3927    0.5933 C   0  0  0  0  0  0
    2.5927   -1.4670    1.9811 O   0  0  0  0  0  0
    4.0662   -3.9481    1.1193 C   0  0  0  0  0  0
    4.3908   -5.2807    0.8562 C   0  0  0  0  0  0
    3.5568   -6.0805    0.0680 C   0  0  0  0  0  0
    2.3868   -5.5314   -0.4638 C   0  0  0  0  0  0
    2.0562   -4.2030   -0.2052 C   0  0  0  0  0  0
   -1.7973   -2.5730    6.6629 C   0  0  0  0  0  0
   -2.7276   -4.7926    4.9232 C   0  0  0  0  0  0
    3.8937   -7.4271   -0.1881 N   0  0  0  0  0  0
    4.6443   -8.2923    0.5782 C   0  0  0  0  0  0
    4.7511   -9.4753    0.0270 N   0  0  0  0  0  0
    4.0463   -9.4238   -1.1714 N   0  0  0  0  0  0
    3.5558   -8.2135   -1.2682 C   0  0  0  0  0  0
    5.1876   -3.0376    2.0797 Cl  0  0  0  0  0  0
   -0.6101    1.5916   -0.0294 C   0  0  0  0  0  0
   -1.3405   -2.3494    0.2373 H   0  0  0  0  0  0
   -0.7874   -0.5117    5.2278 H   0  0  0  0  0  0
   -2.3462   -4.2651    2.2886 H   0  0  0  0  0  0
   -0.5329   -0.3317   -0.9152 H   0  0  0  0  0  0
    1.7272    0.5464   -1.0959 H   0  0  0  0  0  0
    1.9045    0.6547    0.6335 H   0  0  0  0  0  0
    1.9775   -1.7435   -1.0994 H   0  0  0  0  0  0
    5.3066   -5.6844    1.2636 H   0  0  0  0  0  0
    1.7196   -6.1271   -1.0700 H   0  0  0  0  0  0
    1.1376   -3.8141   -0.6218 H   0  0  0  0  0  0
   -2.8427   -2.6609    6.9598 H   0  0  0  0  0  0
   -1.3718   -1.7038    7.1664 H   0  0  0  0  0  0
   -1.2753   -3.4573    7.0295 H   0  0  0  0  0  0
   -1.9991   -5.3001    5.5561 H   0  0  0  0  0  0
   -3.0668   -5.4968    4.1622 H   0  0  0  0  0  0
   -3.5852   -4.5393    5.5470 H   0  0  0  0  0  0
    5.0642   -7.9785    1.5228 H   0  0  0  0  0  0
    2.9603   -7.8200   -2.0787 H   0  0  0  0  0  0
   -1.6996    1.6371   -0.0041 H   0  0  0  0  0  0
   -0.2812    2.1170   -0.9268 H   0  0  0  0  0  0
   -0.2352    2.1491    0.8301 H   0  0  0  0  0  0
  1  7  1  0  0  0
  1  8  1  0  0  0
  1 30  1  0  0  0
  2  3  2  0  0  0
  2  7  1  0  0  0
  2  9  1  0  0  0
  3  6  1  0  0  0
  3 31  1  0  0  0
  4  7  2  0  0  0
  4  5  1  0  0  0
  4 32  1  0  0  0
  5  6  2  0  0  0
  5 22  1  0  0  0
  6 21  1  0  0  0
  8  9  2  0  0  0
  8 10  1  0  0  0
 10 11  1  0  0  0
 10 29  1  0  0  0
 10 33  1  0  0  0
 11 12  1  0  0  0
 11 34  1  0  0  0
 11 35  1  0  0  0
 12 13  1  0  0  0
 12 36  1  0  0  0
 13 14  1  0  0  0
 13 15  2  0  0  0
 14 16  2  0  0  0
 14 20  1  0  0  0
 16 17  1  0  0  0
 16 28  1  0  0  0
 17 18  2  0  0  0
 17 37  1  0  0  0
 18 19  1  0  0  0
 18 23  1  0  0  0
 19 20  2  0  0  0
 19 38  1  0  0  0
 20 39  1  0  0  0
 21 40  1  0  0  0
 21 41  1  0  0  0
 21 42  1  0  0  0
 22 43  1  0  0  0
 22 44  1  0  0  0
 22 45  1  0  0  0
 23 24  1  0  0  0
 23 27  1  0  0  0
 24 25  2  0  0  0
 24 46  1  0  0  0
 25 26  1  0  0  0
 26 27  2  0  0  0
 27 47  1  0  0  0
 29 48  1  0  0  0
 29 49  1  0  0  0
 29 50  1  0  0  0
M  END
> <chembl_id>
CHEMBL3423057

> <chembl_pref_name>
None

> <s_m_source_file>
sdf/inactives_sanitized.sdf

> <i_m_source_file_index>
124

> <i_lp_mmshare_version>
49012

> <i_m_ct_stereo_status>
1

> <i_f3d_flags>
0

> <s_epik_input>
W2NIXTFjKFtDSDNdKWMoW0NIM10pW2NIXWMoYzEyKVtuSF1jKG4yKVtDQEBIXShbQ0gzXSlbQ0gyXVtOSF1DKD1PKWMzYyhDbClbY0hdYyhbY0hdW2NIXTMpLW40W2NIXW5uW2NIXTQ=

> <s_epik_cmdline>
J2VwaWtfcHl0aG9uJywgJy1waHQnLCAnMC41JywgJy1waCcsICc3LjUnLCAnLW50JywgJy1tYScsICcyMDAnLCAnLWltYWUnLCAnPGluZmlsZS5tYWU+JywgJy1vbWFlJywgJzxvdXRmaWxlLm1hZT4n

> <r_lp_tautomer_probability>
1

> <r_epik_Ionization_Penalty>
  0.0212

> <r_epik_Ionization_Penalty_Charging>
  0.0000

> <r_epik_Ionization_Penalty_Neutral>
  0.0212

> <r_epik_State_Penalty>
  0.0170

> <r_epik_Charging_Adjusted_Penalty>
0.0170391240320654

> <i_epik_Tot_Q>
0

> <i_epik_Tot_abs_Q>
0

> <s_lp_Force_Field>
OPLS3e

> <r_lp_Energy>
24.563478

> <b_lp_Chiralities_Consistent>
1

> <s_lp_Variant>
sdf/inactives_sanitized.sdf:124-1

$$$$
sdf/inactives_sanitized.sdf:125
                    3D
 Schrodinger Suite 2020-1.
 50 53  0  0  1  0            999 V2000
   -0.3823    2.2199   -1.2788 N   0  0  0  0  0  0
   -1.2904    3.2764    0.4189 C   0  0  0  0  0  0
   -1.8656    4.3482    1.1118 C   0  0  0  0  0  0
   -1.0717    4.6498   -1.6142 C   0  0  0  0  0  0
   -1.6482    5.7107   -0.9024 C   0  0  0  0  0  0
   -2.0414    5.5647    0.4423 C   0  0  0  0  0  0
   -0.9026    3.4446   -0.9311 C   0  0  0  0  0  0
   -0.4724    1.4091   -0.1712 C   0  0  0  0  0  0
   -1.0178    2.0078    0.8595 N   0  0  0  0  0  0
    0.0697   -0.0079   -0.1485 C   0  0  0  0  0  0
    1.6153   -0.0800   -0.0428 C   0  0  1  0  0  0
    2.1342    0.5351    1.1841 N   0  0  0  0  0  0
    2.5043    1.8219    1.3308 C   0  0  0  0  0  0
    2.9138    2.2294    2.7236 C   0  0  0  0  0  0
    2.4606    2.6550    0.4237 O   0  0  0  0  0  0
    3.8754    1.5239    3.4799 C   0  0  0  0  0  0
    4.2200    1.9710    4.7576 C   0  0  0  0  0  0
    3.6363    3.1226    5.2968 C   0  0  0  0  0  0
    2.7013    3.8341    4.5394 C   0  0  0  0  0  0
    2.3522    3.3942    3.2645 C   0  0  0  0  0  0
   -2.6659    6.7251    1.2068 C   0  0  0  0  0  0
   -1.8396    7.0368   -1.6279 C   0  0  0  0  0  0
    3.9936    3.5655    6.5883 N   0  0  0  0  0  0
    4.4461    2.8288    7.6613 C   0  0  0  0  0  0
    4.6805    3.5763    8.7107 N   0  0  0  0  0  0
    4.3793    4.8844    8.3457 N   0  0  0  0  0  0
    3.9801    4.8452    7.0991 C   0  0  0  0  0  0
    4.6983    0.1176    2.8843 Cl  0  0  0  0  0  0
    2.1160   -1.5305   -0.1458 C   0  0  0  0  0  0
    0.0196    1.9251   -2.1567 H   0  0  0  0  0  0
   -2.1649    4.2350    2.1436 H   0  0  0  0  0  0
   -0.7676    4.7603   -2.6449 H   0  0  0  0  0  0
   -0.3713   -0.5610    0.6828 H   0  0  0  0  0  0
   -0.2580   -0.5311   -1.0479 H   0  0  0  0  0  0
    2.0352    0.4423   -0.9062 H   0  0  0  0  0  0
    2.2516   -0.0845    1.9724 H   0  0  0  0  0  0
    4.9608    1.4220    5.3209 H   0  0  0  0  0  0
    2.2336    4.7262    4.9298 H   0  0  0  0  0  0
    1.6249    3.9641    2.7022 H   0  0  0  0  0  0
   -1.9909    7.5813    1.2145 H   0  0  0  0  0  0
   -2.8917    6.4676    2.2425 H   0  0  0  0  0  0
   -3.5923    7.0409    0.7261 H   0  0  0  0  0  0
   -2.8889    7.3329   -1.6076 H   0  0  0  0  0  0
   -1.5268    6.9897   -2.6719 H   0  0  0  0  0  0
   -1.2663    7.8236   -1.1366 H   0  0  0  0  0  0
    4.5656    1.7578    7.5904 H   0  0  0  0  0  0
    3.6747    5.6842    6.4913 H   0  0  0  0  0  0
    1.7211   -2.0156   -1.0392 H   0  0  0  0  0  0
    1.7900   -2.1310    0.7048 H   0  0  0  0  0  0
    3.2037   -1.5758   -0.2147 H   0  0  0  0  0  0
  1  7  1  0  0  0
  1  8  1  0  0  0
  1 30  1  0  0  0
  2  3  2  0  0  0
  2  7  1  0  0  0
  2  9  1  0  0  0
  3  6  1  0  0  0
  3 31  1  0  0  0
  4  7  2  0  0  0
  4  5  1  0  0  0
  4 32  1  0  0  0
  5  6  2  0  0  0
  5 22  1  0  0  0
  6 21  1  0  0  0
  8  9  2  0  0  0
  8 10  1  0  0  0
 10 11  1  0  0  0
 10 33  1  0  0  0
 10 34  1  0  0  0
 11 12  1  0  0  0
 11 29  1  0  0  0
 11 35  1  0  0  0
 12 13  1  0  0  0
 12 36  1  0  0  0
 13 14  1  0  0  0
 13 15  2  0  0  0
 14 16  2  0  0  0
 14 20  1  0  0  0
 16 17  1  0  0  0
 16 28  1  0  0  0
 17 18  2  0  0  0
 17 37  1  0  0  0
 18 19  1  0  0  0
 18 23  1  0  0  0
 19 20  2  0  0  0
 19 38  1  0  0  0
 20 39  1  0  0  0
 21 40  1  0  0  0
 21 41  1  0  0  0
 21 42  1  0  0  0
 22 43  1  0  0  0
 22 44  1  0  0  0
 22 45  1  0  0  0
 23 24  1  0  0  0
 23 27  1  0  0  0
 24 25  2  0  0  0
 24 46  1  0  0  0
 25 26  1  0  0  0
 26 27  2  0  0  0
 27 47  1  0  0  0
 29 48  1  0  0  0
 29 49  1  0  0  0
 29 50  1  0  0  0
M  END
> <chembl_id>
CHEMBL3423055

> <chembl_pref_name>
None

> <i_m_ct_stereo_status>
1

> <s_m_source_file>
sdf/inactives_sanitized.sdf

> <i_m_source_file_index>
125

> <i_lp_mmshare_version>
49012

> <i_f3d_flags>
0

> <s_epik_input>
W2NIXTFjKFtDSDNdKWMoW0NIM10pW2NIXWMoYzEyKVtuSF1jKG4yKVtDSDJdW0NASF0oW0NIM10pW05IXUMoPU8pYzNjKENsKVtjSF1jKFtjSF1bY0hdMyktbjRbY0hdbm5bY0hdNA==

> <s_epik_cmdline>
J2VwaWtfcHl0aG9uJywgJy1waHQnLCAnMC41JywgJy1waCcsICc3LjUnLCAnLW50JywgJy1tYScsICcyMDAnLCAnLWltYWUnLCAnPGluZmlsZS5tYWU+JywgJy1vbWFlJywgJzxvdXRmaWxlLm1hZT4n

> <r_lp_tautomer_probability>
1

> <r_epik_Ionization_Penalty>
  0.0247

> <r_epik_Ionization_Penalty_Charging>
  0.0000

> <r_epik_Ionization_Penalty_Neutral>
  0.0247

> <r_epik_State_Penalty>
  0.0201

> <r_epik_Charging_Adjusted_Penalty>
0.0200614226594895

> <i_epik_Tot_Q>
0

> <i_epik_Tot_abs_Q>
0

> <s_lp_Force_Field>
OPLS3e

> <r_lp_Energy>
23.744989

> <b_lp_Chiralities_Consistent>
1

> <s_lp_Variant>
sdf/inactives_sanitized.sdf:125-1

$$$$
sdf/inactives_sanitized.sdf:126
                    3D
 Schrodinger Suite 2020-1.
 52 56  0  0  1  0            999 V2000
   -0.6152   -1.9067    5.7104 C   0  0  0  0  0  0
   -0.4512   -0.7561    6.4772 C   0  0  0  0  0  0
   -0.3022    0.4839    5.8579 C   0  0  0  0  0  0
   -0.6345   -1.8469    4.3149 C   0  0  0  0  0  0
   -0.4832   -0.6018    3.6704 C   0  0  0  0  0  0
   -0.3205    0.5382    4.4817 N   0  0  0  0  0  0
   -0.1938    1.6668    3.7417 N   0  0  0  0  0  0
   -0.4453   -0.1031    2.3417 C   0  0  0  0  0  0
   -0.2669    1.2836    2.4858 C   0  0  0  0  0  0
   -0.1709    2.2436    1.3043 C   0  0  0  0  0  0
   -0.6973    1.5088    0.0470 C   0  0  0  0  0  0
   -0.0408    0.1067   -0.1472 C   0  0  1  0  0  0
   -0.5979   -0.8036    0.9906 C   0  0  0  0  0  0
   -0.4743   -0.5031   -1.5058 C   0  0  0  0  0  0
    1.4358    0.1100   -0.1006 N   0  0  0  0  0  0
    2.2981    0.8012   -0.8756 C   0  0  0  0  0  0
    1.9461    1.5611   -1.7788 O   0  0  0  0  0  0
   -0.7992   -2.9901    3.5769 O   0  0  0  0  0  0
    3.7614    0.5870   -0.5639 C   0  0  0  0  0  0
    4.2247   -0.7088   -0.2850 C   0  0  0  0  0  0
    5.5659   -0.9465    0.0063 C   0  0  0  0  0  0
    6.4812    0.1113    0.0328 C   0  0  0  0  0  0
    6.0264    1.4090   -0.2313 C   0  0  0  0  0  0
    4.6828    1.6553   -0.5227 C   0  0  0  0  0  0
    4.2229    3.3061   -0.7923 Cl  0  0  0  0  0  0
    7.8468   -0.1267    0.3241 N   0  0  0  0  0  0
    8.8369    0.6234   -0.1950 N   0  0  0  0  0  0
    9.9130    0.0771    0.3129 C   0  0  0  0  0  0
    9.5532   -0.9929    1.1296 C   0  0  0  0  0  0
    8.2501   -1.1217    1.1366 N   0  0  0  0  0  0
   -0.1225    1.7589    6.6697 C   0  0  0  0  0  0
   -0.7295   -2.8584    6.2092 H   0  0  0  0  0  0
   -0.4408   -0.8325    7.5549 H   0  0  0  0  0  0
   -0.7529    3.1497    1.4769 H   0  0  0  0  0  0
    0.8630    2.5554    1.1523 H   0  0  0  0  0  0
   -1.7857    1.4279    0.0698 H   0  0  0  0  0  0
   -0.4679    2.1454   -0.8086 H   0  0  0  0  0  0
   -0.0823   -1.7656    0.9936 H   0  0  0  0  0  0
   -1.6522   -1.0319    0.8266 H   0  0  0  0  0  0
   -1.5592   -0.5948   -1.5719 H   0  0  0  0  0  0
   -0.0569   -1.5009   -1.6493 H   0  0  0  0  0  0
   -0.1615    0.1075   -2.3531 H   0  0  0  0  0  0
    1.8345   -0.4474    0.6403 H   0  0  0  0  0  0
   -0.8937   -3.7777    4.1179 H   0  0  0  0  0  0
    3.5483   -1.5518   -0.3043 H   0  0  0  0  0  0
    5.8859   -1.9597    0.2046 H   0  0  0  0  0  0
    6.7159    2.2410   -0.2027 H   0  0  0  0  0  0
   10.9101    0.4358    0.1031 H   0  0  0  0  0  0
   10.2120   -1.6416    1.6882 H   0  0  0  0  0  0
   -0.1370    1.5607    7.7423 H   0  0  0  0  0  0
   -0.9213    2.4672    6.4474 H   0  0  0  0  0  0
    0.8296    2.2319    6.4274 H   0  0  0  0  0  0
  1  2  1  0  0  0
  1  4  2  0  0  0
  1 32  1  0  0  0
  2  3  2  0  0  0
  2 33  1  0  0  0
  3  6  1  0  0  0
  3 31  1  0  0  0
  4  5  1  0  0  0
  4 18  1  0  0  0
  5  6  1  0  0  0
  5  8  2  0  0  0
  6  7  1  0  0  0
  7  9  2  0  0  0
  8  9  1  0  0  0
  8 13  1  0  0  0
  9 10  1  0  0  0
 10 11  1  0  0  0
 10 34  1  0  0  0
 10 35  1  0  0  0
 11 12  1  0  0  0
 11 36  1  0  0  0
 11 37  1  0  0  0
 12 13  1  0  0  0
 12 14  1  0  0  0
 12 15  1  0  0  0
 13 38  1  0  0  0
 13 39  1  0  0  0
 14 40  1  0  0  0
 14 41  1  0  0  0
 14 42  1  0  0  0
 15 16  1  0  0  0
 15 43  1  0  0  0
 16 17  2  0  0  0
 16 19  1  0  0  0
 18 44  1  0  0  0
 19 20  2  0  0  0
 19 24  1  0  0  0
 20 21  1  0  0  0
 20 45  1  0  0  0
 21 22  2  0  0  0
 21 46  1  0  0  0
 22 23  1  0  0  0
 22 26  1  0  0  0
 23 24  2  0  0  0
 23 47  1  0  0  0
 24 25  1  0  0  0
 26 27  1  0  0  0
 26 30  1  0  0  0
 27 28  2  0  0  0
 28 29  1  0  0  0
 28 48  1  0  0  0
 29 30  2  0  0  0
 29 49  1  0  0  0
 31 50  1  0  0  0
 31 51  1  0  0  0
 31 52  1  0  0  0
M  END
> <chembl_id>
CHEMBL3423052

> <chembl_pref_name>
None

> <s_m_source_file>
sdf/inactives_sanitized.sdf

> <i_m_source_file_index>
126

> <i_lp_mmshare_version>
49012

> <i_m_ct_stereo_status>
1

> <i_f3d_flags>
0

> <s_epik_input>
W09IXWMxW2NIXVtjSF1jKFtDSDNdKW4oYzEyKW5jM2MyW0NIMl1bQ0BAXShbQ0gzXSkoW0NIMl1bQ0gyXTMpW05IXUMoPU8pYzRbY0hdW2NIXWMoW2NIXWM0Q2wpLW41bltjSF1bY0hdbjU=

> <s_epik_cmdline>
J2VwaWtfcHl0aG9uJywgJy1waHQnLCAnMC41JywgJy1waCcsICc3LjUnLCAnLW50JywgJy1tYScsICcyMDAnLCAnLWltYWUnLCAnPGluZmlsZS5tYWU+JywgJy1vbWFlJywgJzxvdXRmaWxlLm1hZT4n

> <r_lp_tautomer_probability>
1

> <r_epik_Ionization_Penalty>
  0.0171

> <r_epik_Ionization_Penalty_Charging>
  0.0000

> <r_epik_Ionization_Penalty_Neutral>
  0.0171

> <r_epik_State_Penalty>
  0.0136

> <r_epik_Charging_Adjusted_Penalty>
0.0135721177526746

> <i_epik_Tot_Q>
0

> <i_epik_Tot_abs_Q>
0

> <s_lp_Force_Field>
OPLS3e

> <r_lp_Energy>
35.963539

> <b_lp_Chiralities_Consistent>
1

> <s_lp_Variant>
sdf/inactives_sanitized.sdf:126-1

$$$$
sdf/inactives_sanitized.sdf:127
                    3D
 Schrodinger Suite 2020-1.
 44 46  0  0  1  0            999 V2000
    0.0035    0.0311   -0.0451 O   0  0  0  0  0  0
    1.4134   -0.1616    0.0408 C   0  0  0  0  0  0
    1.7534   -1.6537    0.0360 C   0  0  0  0  0  0
    3.0858   -1.8629    0.0564 O   0  0  0  0  0  0
    0.5837    4.9789    0.0451 C   0  0  0  0  0  0
    0.2092    6.0627    0.8450 C   0  0  0  0  0  0
    0.9834    7.2159    0.9343 C   0  0  0  0  0  0
    1.7738    5.0500   -0.6916 C   0  0  0  0  0  0
    2.5863    6.1948   -0.6299 C   0  0  0  0  0  0
    2.1708    7.2758    0.1947 C   0  0  0  0  0  0
    3.3160    8.6049    0.1370 S   0  0  0  0  0  0
    4.3408    7.7223   -0.9892 C   0  0  0  0  0  0
    3.8180    6.4716   -1.2855 C   0  0  0  0  0  0
    5.5221    8.2667   -1.4578 C   0  0  0  0  0  0
    5.5892    9.5716   -1.6897 N   0  0  0  0  0  0
    6.5538    7.4595   -1.6701 N   0  3  0  0  0  0
   -0.2714    3.7593   -0.0244 C   0  0  0  0  0  0
   -1.6654    3.8628   -0.1213 C   0  0  0  0  0  0
   -1.8766    1.4598   -0.1644 C   0  0  0  0  0  0
   -0.4919    1.3200   -0.0668 C   0  0  0  0  0  0
   -2.4633    2.7227   -0.1915 C   0  0  0  0  0  0
    0.3008    2.4788    0.0030 C   0  0  0  0  0  0
    0.8834   -2.5280    0.0153 O   0  0  0  0  0  0
    3.6113   -3.1840    0.0563 C   0  0  0  0  0  0
    5.1420   -3.1250    0.0501 C   0  0  0  0  0  0
    1.7830    0.2753    0.9695 H   0  0  0  0  0  0
    1.9047    0.3144   -0.8089 H   0  0  0  0  0  0
   -0.7033    6.0126    1.4218 H   0  0  0  0  0  0
    0.6728    8.0390    1.5615 H   0  0  0  0  0  0
    2.0672    4.2200   -1.3179 H   0  0  0  0  0  0
    4.2970    5.7726   -1.9551 H   0  0  0  0  0  0
    6.4473    9.9793   -2.0307 H   0  0  0  0  0  0
    4.7795   10.1514   -1.5236 H   0  0  0  0  0  0
    7.4257    7.8363   -2.0117 H   0  0  0  0  0  0
   -2.1399    4.8330   -0.1505 H   0  0  0  0  0  0
   -2.5027    0.5811   -0.2203 H   0  0  0  0  0  0
   -3.5365    2.8172   -0.2688 H   0  0  0  0  0  0
    1.3739    2.3955    0.0863 H   0  0  0  0  0  0
    3.2637   -3.7231    0.9392 H   0  0  0  0  0  0
    3.2578   -3.7276   -0.8215 H   0  0  0  0  0  0
    5.5669   -4.1288    0.0531 H   0  0  0  0  0  0
    5.5210   -2.6012    0.9281 H   0  0  0  0  0  0
    5.5138   -2.6095   -0.8360 H   0  0  0  0  0  0
    6.4651    6.4726   -1.4775 H   0  0  0  0  0  0
  1  2  1  0  0  0
  1 20  1  0  0  0
  2  3  1  0  0  0
  2 26  1  0  0  0
  2 27  1  0  0  0
  3  4  1  0  0  0
  3 23  2  0  0  0
  4 24  1  0  0  0
  5  8  1  0  0  0
  5 17  1  0  0  0
  5  6  2  0  0  0
  6  7  1  0  0  0
  6 28  1  0  0  0
  7 10  2  0  0  0
  7 29  1  0  0  0
  8  9  2  0  0  0
  8 30  1  0  0  0
  9 13  1  0  0  0
  9 10  1  0  0  0
 10 11  1  0  0  0
 11 12  1  0  0  0
 12 13  2  0  0  0
 12 14  1  0  0  0
 13 31  1  0  0  0
 14 15  1  0  0  0
 14 16  2  0  0  0
 15 32  1  0  0  0
 15 33  1  0  0  0
 16 34  1  0  0  0
 16 44  1  0  0  0
 17 18  2  0  0  0
 17 22  1  0  0  0
 18 21  1  0  0  0
 18 35  1  0  0  0
 19 20  1  0  0  0
 19 21  2  0  0  0
 19 36  1  0  0  0
 20 22  2  0  0  0
 21 37  1  0  0  0
 22 38  1  0  0  0
 24 25  1  0  0  0
 24 39  1  0  0  0
 24 40  1  0  0  0
 25 41  1  0  0  0
 25 42  1  0  0  0
 25 43  1  0  0  0
M  CHG  1  16   1
M  END
> <chembl_id>
CHEMBL598383

> <chembl_pref_name>
None

> <s_m_source_file>
sdf/inactives_sanitized.sdf

> <i_m_source_file_index>
127

> <i_lp_mmshare_version>
49012

> <i_m_ct_stereo_status>
1

> <i_f3d_flags>
0

> <s_epik_input>
W0NIM11bQ0gyXU9DKD1PKVtDSDJdT2MoW2NIXTEpW2NIXVtjSF1bY0hdYzEtYyhbY0hdMilbY0hdW2NIXWMoYzIzKXNjKFtjSF0zKS9DKFtOSDJdKT1OL1tIXQ==

> <s_epik_cmdline>
J2VwaWtfcHl0aG9uJywgJy1waHQnLCAnMC41JywgJy1waCcsICc3LjUnLCAnLW50JywgJy1tYScsICcyMDAnLCAnLWltYWUnLCAnPGluZmlsZS5tYWU+JywgJy1vbWFlJywgJzxvdXRmaWxlLm1hZT4n

> <r_lp_tautomer_probability>
1

> <r_epik_Ionization_Penalty>
  0.0095

> <r_epik_Ionization_Penalty_Charging>
  0.0095

> <r_epik_Ionization_Penalty_Neutral>
  0.0000

> <r_epik_State_Penalty>
 -0.0000

> <r_epik_Charging_Adjusted_Penalty>
0.00945881282357717

> <i_epik_Tot_Q>
1

> <i_epik_Tot_abs_Q>
1

> <s_epik_Chemistry_Notes>
This compound has an ester and may undergo hydrolysis at high or low pH. This compound has an imine and may undergo hydrolysis.

> <s_lp_Force_Field>
OPLS3e

> <r_lp_Energy>
26.451363

> <b_lp_Chiralities_Consistent>
1

> <s_lp_Variant>
sdf/inactives_sanitized.sdf:127-1

$$$$
sdf/inactives_sanitized.sdf:128
                    3D
 Schrodinger Suite 2020-1.
 41 43  0  0  1  0            999 V2000
    0.1283    2.6836   -0.0860 C   0  0  0  0  0  0
   -0.5261    3.9100   -0.0745 C   0  0  0  0  0  0
   -1.9147    3.9845   -0.0450 C   0  0  0  0  0  0
   -0.5882    1.4774   -0.0653 C   0  0  0  0  0  0
   -1.9981    1.5166   -0.0364 C   0  0  0  0  0  0
   -2.6439    2.7876   -0.0268 C   0  0  0  0  0  0
   -4.3912    2.6245    0.0118 S   0  0  0  0  0  0
   -4.2658    0.8703    0.0111 C   0  0  0  0  0  0
   -2.9439    0.4505   -0.0093 C   0  0  0  0  0  0
   -5.3955    0.0744    0.0506 C   0  0  0  0  0  0
   -6.4860    0.4636   -0.5978 N   0  0  0  0  0  0
   -5.3477   -1.0637    0.7316 N   0  3  0  0  0  0
   -0.0350    0.2076   -0.0771 O   0  0  0  0  0  0
    1.3857    0.0317    0.0144 C   0  0  2  0  0  0
    1.7187   -1.4395   -0.2976 C   0  0  0  0  0  0
    1.9134    0.4299    1.3954 C   0  0  0  0  0  0
    1.1498    0.1964    2.5451 C   0  0  0  0  0  0
    1.6363    0.5723    3.7942 C   0  0  0  0  0  0
    2.8862    1.1793    3.8935 C   0  0  0  0  0  0
    3.6543    1.4132    2.7551 C   0  0  0  0  0  0
    3.1679    1.0379    1.5056 C   0  0  0  0  0  0
    1.1776   -1.8202   -1.6800 N   0  3  0  0  0  0
    1.2073    2.6890   -0.1098 H   0  0  0  0  0  0
    0.0549    4.8207   -0.0889 H   0  0  0  0  0  0
   -2.4129    4.9434   -0.0362 H   0  0  0  0  0  0
   -2.6544   -0.5898   -0.0084 H   0  0  0  0  0  0
   -7.3182   -0.1073   -0.5724 H   0  0  0  0  0  0
   -6.4798    1.3330   -1.1113 H   0  0  0  0  0  0
   -4.5026   -1.3208    1.2201 H   0  0  0  0  0  0
    1.8635    0.6483   -0.7504 H   0  0  0  0  0  0
    2.7898   -1.6365   -0.3580 H   0  0  0  0  0  0
    1.2376   -2.1429    0.3831 H   0  0  0  0  0  0
    0.1797   -0.2737    2.4737 H   0  0  0  0  0  0
    1.0474    0.3947    4.6822 H   0  0  0  0  0  0
    3.2638    1.4709    4.8626 H   0  0  0  0  0  0
    4.6224    1.8844    2.8419 H   0  0  0  0  0  0
    3.7666    1.2230    0.6256 H   0  0  0  0  0  0
    1.3889   -2.7867   -1.8844 H   0  0  0  0  0  0
    1.5970   -1.2368   -2.3901 H   0  0  0  0  0  0
   -6.1632   -1.6572    0.7773 H   0  0  0  0  0  0
    0.1760   -1.6920   -1.7045 H   0  0  0  0  0  0
  1  2  2  0  0  0
  1  4  1  0  0  0
  1 23  1  0  0  0
  2  3  1  0  0  0
  2 24  1  0  0  0
  3  6  2  0  0  0
  3 25  1  0  0  0
  4 13  1  0  0  0
  4  5  2  0  0  0
  5  6  1  0  0  0
  5  9  1  0  0  0
  6  7  1  0  0  0
  7  8  1  0  0  0
  8  9  2  0  0  0
  8 10  1  0  0  0
  9 26  1  0  0  0
 10 11  1  0  0  0
 10 12  2  0  0  0
 11 27  1  0  0  0
 11 28  1  0  0  0
 12 29  1  0  0  0
 12 40  1  0  0  0
 13 14  1  0  0  0
 14 15  1  0  0  0
 14 16  1  0  0  0
 14 30  1  0  0  0
 15 22  1  0  0  0
 15 31  1  0  0  0
 15 32  1  0  0  0
 16 17  2  0  0  0
 16 21  1  0  0  0
 17 18  1  0  0  0
 17 33  1  0  0  0
 18 19  2  0  0  0
 18 34  1  0  0  0
 19 20  1  0  0  0
 19 35  1  0  0  0
 20 21  2  0  0  0
 20 36  1  0  0  0
 21 37  1  0  0  0
 22 38  1  0  0  0
 22 39  1  0  0  0
 22 41  1  0  0  0
M  CHG  2  12   1  22   1
M  END
> <chembl_id>
CHEMBL610516

> <chembl_pref_name>
None

> <s_m_source_file>
sdf/inactives_sanitized.sdf

> <i_m_source_file_index>
128

> <i_lp_mmshare_version>
49012

> <i_m_ct_stereo_status>
1

> <i_f3d_flags>
0

> <s_epik_input>
W0hdL049QyhbTkgyXSlcYyhbY0hdMSlzYyhjMTIpW2NIXVtjSF1bY0hdYzJPW0NASF0oW0NIMl1bTkgyXSljM1tjSF1bY0hdW2NIXVtjSF1bY0hdMw==

> <s_epik_cmdline>
J2VwaWtfcHl0aG9uJywgJy1waHQnLCAnMC41JywgJy1waCcsICc3LjUnLCAnLW50JywgJy1tYScsICcyMDAnLCAnLWltYWUnLCAnPGluZmlsZS5tYWU+JywgJy1vbWFlJywgJzxvdXRmaWxlLm1hZT4n

> <r_lp_tautomer_probability>
1

> <r_epik_Ionization_Penalty>
  0.0621

> <r_epik_Ionization_Penalty_Charging>
  0.0621

> <r_epik_Ionization_Penalty_Neutral>
  0.0000

> <r_epik_State_Penalty>
 -0.0000

> <r_epik_Charging_Adjusted_Penalty>
0.0620753665646109

> <i_epik_Tot_Q>
2

> <i_epik_Tot_abs_Q>
2

> <s_epik_Chemistry_Notes>
This compound has an imine and may undergo hydrolysis.

> <s_lp_Force_Field>
OPLS3e

> <r_lp_Energy>
28.948624

> <b_lp_Chiralities_Consistent>
1

> <s_lp_Variant>
sdf/inactives_sanitized.sdf:128-1

$$$$
sdf/inactives_sanitized.sdf:129
                    3D
 Schrodinger Suite 2020-1.
 55 60  0  0  1  0            999 V2000
    0.7550   -0.0311    0.6456 C   0  0  0  0  0  0
    2.1481   -0.4215    0.1645 C   0  0  0  0  0  0
   -3.2552    6.7673    2.2798 N   0  0  0  0  0  0
    0.4242    1.4801    0.8135 C   0  0  0  0  0  0
   -3.7496    7.1848    3.5008 C   0  0  0  0  0  0
    2.5721   -0.2904   -1.1983 C   0  0  0  0  0  0
   -4.2866    8.3755    3.5004 N   0  0  0  0  0  0
    3.1637   -0.9367    0.9474 C   0  0  0  0  0  0
   -0.4091   -0.9102    0.1935 C   0  0  0  0  0  0
    0.0536   -0.9768    1.6212 C   0  0  0  0  0  0
    4.6431   -1.2857    0.0978 S   0  0  0  0  0  0
   -3.5086    7.8169    1.4053 C   0  0  0  0  0  0
    1.8648    0.1905   -2.3166 C   0  0  0  0  0  0
    1.7175    0.7478   -4.7353 C   0  0  0  0  0  0
   -0.8036    1.8190    1.2740 N   0  0  0  0  0  0
    2.4629    0.2409   -3.5837 C   0  0  0  0  0  0
    3.9162   -0.7250   -1.3958 C   0  0  0  0  0  0
   -4.1518    8.7991    2.2080 C   0  0  0  0  0  0
   -2.5962    5.5425    2.0296 C   0  0  0  0  0  0
    1.8869    0.1714   -5.9196 N   0  3  0  0  0  0
    1.2978    2.3036    0.5372 O   0  0  0  0  0  0
    3.7825   -0.1985   -3.7291 C   0  0  0  0  0  0
    4.5237   -0.6818   -2.6560 C   0  0  0  0  0  0
   -3.0754    4.3677    2.6177 C   0  0  0  0  0  0
   -1.5074    5.4885    1.1538 C   0  0  0  0  0  0
   -1.3530    3.0959    1.4927 C   0  0  0  0  0  0
    0.8894    1.7722   -4.5659 N   0  0  0  0  0  0
   -2.4555    3.1512    2.3480 C   0  0  0  0  0  0
   -0.8862    4.2718    0.8856 C   0  0  0  0  0  0
   -3.2756    8.0245    0.0378 C   0  0  0  0  0  0
   -4.5567   10.0153    1.6395 C   0  0  0  0  0  0
   -3.6912    9.2460   -0.4970 C   0  0  0  0  0  0
   -4.3147   10.2203    0.2816 C   0  0  0  0  0  0
   -3.6589    6.5423    4.3648 H   0  0  0  0  0  0
    3.1147   -1.1324    2.0087 H   0  0  0  0  0  0
   -1.3796   -0.4654   -0.0308 H   0  0  0  0  0  0
   -0.1979   -1.7541   -0.4643 H   0  0  0  0  0  0
    0.5796   -1.8716    1.9553 H   0  0  0  0  0  0
   -0.5889   -0.5802    2.4083 H   0  0  0  0  0  0
    0.8442    0.5230   -2.1995 H   0  0  0  0  0  0
   -1.3967    1.0547    1.5614 H   0  0  0  0  0  0
    2.5216   -0.6086   -6.0107 H   0  0  0  0  0  0
    4.2527   -0.1558   -4.7005 H   0  0  0  0  0  0
    5.5432   -1.0112   -2.7962 H   0  0  0  0  0  0
   -3.9312    4.3873    3.2772 H   0  0  0  0  0  0
   -1.1249    6.3841    0.6871 H   0  0  0  0  0  0
    0.3683    2.1354   -5.3504 H   0  0  0  0  0  0
    0.7912    2.1890   -3.6513 H   0  0  0  0  0  0
   -2.8384    2.2527    2.8112 H   0  0  0  0  0  0
   -0.0580    4.2687    0.1948 H   0  0  0  0  0  0
   -2.8058    7.2816   -0.5890 H   0  0  0  0  0  0
   -5.0448   10.7749    2.2327 H   0  0  0  0  0  0
   -3.5273    9.4413   -1.5467 H   0  0  0  0  0  0
   -4.6191   11.1496   -0.1772 H   0  0  0  0  0  0
    1.3776    0.5109   -6.7221 H   0  0  0  0  0  0
  1  2  1  0  0  0
  1  4  1  0  0  0
  1  9  1  0  0  0
  1 10  1  0  0  0
  2  6  1  0  0  0
  2  8  2  0  0  0
  3 19  1  0  0  0
  3  5  1  0  0  0
  3 12  1  0  0  0
  4 15  1  0  0  0
  4 21  2  0  0  0
  5  7  2  0  0  0
  5 34  1  0  0  0
  6 13  2  0  0  0
  6 17  1  0  0  0
  7 18  1  0  0  0
  8 11  1  0  0  0
  8 35  1  0  0  0
  9 10  1  0  0  0
  9 36  1  0  0  0
  9 37  1  0  0  0
 10 38  1  0  0  0
 10 39  1  0  0  0
 11 17  1  0  0  0
 12 18  2  0  0  0
 12 30  1  0  0  0
 13 16  1  0  0  0
 13 40  1  0  0  0
 14 16  1  0  0  0
 14 20  2  0  0  0
 14 27  1  0  0  0
 15 26  1  0  0  0
 15 41  1  0  0  0
 16 22  2  0  0  0
 17 23  2  0  0  0
 18 31  1  0  0  0
 19 24  2  0  0  0
 19 25  1  0  0  0
 20 42  1  0  0  0
 20 55  1  0  0  0
 22 23  1  0  0  0
 22 43  1  0  0  0
 23 44  1  0  0  0
 24 28  1  0  0  0
 24 45  1  0  0  0
 25 29  2  0  0  0
 25 46  1  0  0  0
 26 28  2  0  0  0
 26 29  1  0  0  0
 27 47  1  0  0  0
 27 48  1  0  0  0
 28 49  1  0  0  0
 29 50  1  0  0  0
 30 32  2  0  0  0
 30 51  1  0  0  0
 31 33  2  0  0  0
 31 52  1  0  0  0
 32 33  1  0  0  0
 32 53  1  0  0  0
 33 54  1  0  0  0
M  CHG  1  20   1
M  END
> <chembl_id>
CHEMBL185330

> <chembl_pref_name>
None

> <s_m_source_file>
sdf/inactives_sanitized.sdf

> <i_m_source_file_index>
129

> <i_lp_mmshare_version>
49012

> <i_m_ct_stereo_status>
1

> <i_f3d_flags>
0

> <s_epik_input>
W0hdXE49QyhbTkgyXSlcYyhbY0hdMSlbY0hdW2NIXWMoYzEyKXNbY0hdYzJDMyhbQ0gyXVtDSDJdMylDKD1PKVtOSF1jKFtjSF1bY0hdNClbY0hdW2NIXWM0LW41W2NIXW5jKGM1NilbY0hdW2NIXVtjSF1bY0hdNg==

> <s_epik_cmdline>
J2VwaWtfcHl0aG9uJywgJy1waHQnLCAnMC41JywgJy1waCcsICc3LjUnLCAnLW50JywgJy1tYScsICcyMDAnLCAnLWltYWUnLCAnPGluZmlsZS5tYWU+JywgJy1vbWFlJywgJzxvdXRmaWxlLm1hZT4n

> <r_epik_Ionization_Penalty>
  0.0112

> <r_epik_Ionization_Penalty_Charging>
  0.0010

> <r_epik_Ionization_Penalty_Neutral>
  0.0102

> <r_epik_State_Penalty>
  0.0078

> <r_epik_Charging_Adjusted_Penalty>
0.00877873498810205

> <i_epik_Tot_Q>
1

> <i_epik_Tot_abs_Q>
1

> <s_epik_Chemistry_Notes>
This compound has an imine and may undergo hydrolysis.

> <s_lp_Force_Field>
OPLS3e

> <r_lp_Energy>
57.604825

> <b_lp_Chiralities_Consistent>
1

> <s_lp_Variant>
sdf/inactives_sanitized.sdf:129-1

$$$$
sdf/inactives_sanitized.sdf:130
                    3D
 Schrodinger Suite 2020-1.
 63 66  0  0  1  0            999 V2000
    2.7756   -0.4386   -1.2537 C   0  0  0  0  0  0
    3.1970    0.6650   -2.0718 C   0  0  0  0  0  0
    0.4862    0.1568   -0.3414 C   0  0  0  0  0  0
    1.9311   -0.2574    0.0133 C   0  0  1  0  0  0
    3.2408   -1.6325   -1.7806 C   0  0  0  0  0  0
   -1.6801    2.9524    1.0790 C   0  0  2  0  0  0
    4.1795   -1.4868   -3.2391 S   0  0  0  0  0  0
    0.0483    1.3075    0.2009 N   0  0  0  0  0  0
    2.9511    2.0435   -1.9172 C   0  0  0  0  0  0
   -1.2622    1.9283   -0.0240 C   0  0  2  0  0  0
   -1.6419    2.3507    2.5010 C   0  0  0  0  0  0
    3.1573    4.4021   -2.6751 C   0  0  0  0  0  0
    3.4393    2.9765   -2.8422 C   0  0  0  0  0  0
    3.9709    0.2519   -3.1970 C   0  0  0  0  0  0
    2.9270    5.1447   -3.7517 N   0  3  0  0  0  0
    1.9604   -1.4983    0.9512 C   0  0  0  0  0  0
   -0.1997   -0.5505   -1.0814 O   0  0  0  0  0  0
   -1.9399    1.1743    2.7221 O   0  0  0  0  0  0
    4.1950    2.5226   -3.9274 C   0  0  0  0  0  0
    4.4733    1.1741   -4.1224 C   0  0  0  0  0  0
    3.1349    4.9169   -1.4510 N   0  0  0  0  0  0
   -1.2396    3.2495    3.4236 O   0  0  0  0  0  0
    1.2719   -1.2878    2.2979 C   0  0  0  0  0  0
   -3.0955    3.5228    0.8207 C   0  0  0  0  0  0
   -1.4116    2.5484   -1.4398 C   0  0  0  0  0  0
   -1.1349    2.8816    4.7912 C   0  0  0  0  0  0
    0.0265   -1.8719    2.5472 C   0  0  0  0  0  0
    1.8856   -0.5028    3.2779 C   0  0  0  0  0  0
   -3.1606    4.2044   -0.5558 C   0  0  0  0  0  0
   -2.7803    3.2207   -1.6770 C   0  0  0  0  0  0
   -0.6021   -1.6726    3.7733 C   0  0  0  0  0  0
    1.2548   -0.3008    4.5026 C   0  0  0  0  0  0
    0.0144   -0.8872    4.7449 C   0  0  0  0  0  0
    2.3901    0.5535    0.5832 H   0  0  0  0  0  0
    3.0735   -2.6205   -1.3776 H   0  0  0  0  0  0
   -0.9685    3.7795    1.0598 H   0  0  0  0  0  0
    0.6860    1.8296    0.7837 H   0  0  0  0  0  0
    2.3623    2.3922   -1.0828 H   0  0  0  0  0  0
   -1.9910    1.1140    0.0282 H   0  0  0  0  0  0
    2.9474    4.7186   -4.6671 H   0  0  0  0  0  0
    1.5192   -2.3649    0.4544 H   0  0  0  0  0  0
    2.9948   -1.7806    1.1558 H   0  0  0  0  0  0
    4.5833    3.2356   -4.6398 H   0  0  0  0  0  0
    5.0605    0.8511   -4.9702 H   0  0  0  0  0  0
    2.9422    5.8993   -1.3210 H   0  0  0  0  0  0
    3.3197    4.3236   -0.6553 H   0  0  0  0  0  0
   -3.8526    2.7373    0.8734 H   0  0  0  0  0  0
   -3.3477    4.2738    1.5723 H   0  0  0  0  0  0
   -0.6356    3.3031   -1.5787 H   0  0  0  0  0  0
   -1.2508    1.7906   -2.2080 H   0  0  0  0  0  0
   -0.8189    3.7410    5.3823 H   0  0  0  0  0  0
   -0.3997    2.0882    4.9275 H   0  0  0  0  0  0
   -2.0941    2.5365    5.1797 H   0  0  0  0  0  0
   -0.4572   -2.4746    1.7920 H   0  0  0  0  0  0
    2.8469   -0.0470    3.0900 H   0  0  0  0  0  0
   -4.1640    4.5950   -0.7302 H   0  0  0  0  0  0
   -2.4889    5.0642   -0.5759 H   0  0  0  0  0  0
   -2.7784    3.7363   -2.6380 H   0  0  0  0  0  0
   -3.5480    2.4489   -1.7517 H   0  0  0  0  0  0
   -1.5656   -2.1201    3.9676 H   0  0  0  0  0  0
    1.7241    0.3084    5.2608 H   0  0  0  0  0  0
   -0.4760   -0.7287    5.6941 H   0  0  0  0  0  0
    2.7311    6.1299   -3.6528 H   0  0  0  0  0  0
  1  2  1  0  0  0
  1  4  1  0  0  0
  1  5  2  0  0  0
  2  9  2  0  0  0
  2 14  1  0  0  0
  3  4  1  0  0  0
  3  8  1  0  0  0
  3 17  2  0  0  0
  4 16  1  0  0  0
  4 34  1  0  0  0
  5  7  1  0  0  0
  5 35  1  0  0  0
  6 10  1  0  0  0
  6 11  1  0  0  0
  6 24  1  0  0  0
  6 36  1  0  0  0
  7 14  1  0  0  0
  8 10  1  0  0  0
  8 37  1  0  0  0
  9 13  1  0  0  0
  9 38  1  0  0  0
 10 25  1  0  0  0
 10 39  1  0  0  0
 11 18  2  0  0  0
 11 22  1  0  0  0
 12 13  1  0  0  0
 12 15  2  0  0  0
 12 21  1  0  0  0
 13 19  2  0  0  0
 14 20  2  0  0  0
 15 40  1  0  0  0
 15 63  1  0  0  0
 16 23  1  0  0  0
 16 41  1  0  0  0
 16 42  1  0  0  0
 19 20  1  0  0  0
 19 43  1  0  0  0
 20 44  1  0  0  0
 21 45  1  0  0  0
 21 46  1  0  0  0
 22 26  1  0  0  0
 23 27  2  0  0  0
 23 28  1  0  0  0
 24 29  1  0  0  0
 24 47  1  0  0  0
 24 48  1  0  0  0
 25 30  1  0  0  0
 25 49  1  0  0  0
 25 50  1  0  0  0
 26 51  1  0  0  0
 26 52  1  0  0  0
 26 53  1  0  0  0
 27 31  1  0  0  0
 27 54  1  0  0  0
 28 32  2  0  0  0
 28 55  1  0  0  0
 29 30  1  0  0  0
 29 56  1  0  0  0
 29 57  1  0  0  0
 30 58  1  0  0  0
 30 59  1  0  0  0
 31 33  2  0  0  0
 31 60  1  0  0  0
 32 33  1  0  0  0
 32 61  1  0  0  0
 33 62  1  0  0  0
M  CHG  1  15   1
M  END
> <chembl_id>
CHEMBL362640

> <chembl_pref_name>
None

> <i_m_ct_stereo_status>
1

> <s_m_source_file>
sdf/inactives_sanitized.sdf

> <i_m_source_file_index>
130

> <i_lp_mmshare_version>
49012

> <i_f3d_flags>
0

> <s_epik_input>
W0NIMl0xW0NIMl1bQ0gyXVtDSDJdW0NASF0oW0NAQEhdMUMoPU8pT1tDSDNdKVtOSF1DKD1PKVtDQEBIXShbQ0gyXWMyW2NIXVtjSF1bY0hdW2NIXVtjSF0yKWMzW2NIXXNjKGMzNClbY0hdW2NIXWMoW2NIXTQpL0MoPU4vW0hdKVtOSDJd

> <s_epik_cmdline>
J2VwaWtfcHl0aG9uJywgJy1waHQnLCAnMC41JywgJy1waCcsICc3LjUnLCAnLW50JywgJy1tYScsICcyMDAnLCAnLWltYWUnLCAnPGluZmlsZS5tYWU+JywgJy1vbWFlJywgJzxvdXRmaWxlLm1hZT4n

> <r_lp_tautomer_probability>
1

> <r_epik_Ionization_Penalty>
  0.0010

> <r_epik_Ionization_Penalty_Charging>
  0.0010

> <r_epik_Ionization_Penalty_Neutral>
  0.0000

> <r_epik_State_Penalty>
 -0.0000

> <r_epik_Charging_Adjusted_Penalty>
0.000984797499885888

> <i_epik_Tot_Q>
1

> <i_epik_Tot_abs_Q>
1

> <s_epik_Chemistry_Notes>
This compound has an ester and may undergo hydrolysis at high or low pH. This compound has an imine and may undergo hydrolysis.

> <s_lp_Force_Field>
OPLS3e

> <r_lp_Energy>
29.055259

> <b_lp_Chiralities_Consistent>
1

> <s_lp_Variant>
sdf/inactives_sanitized.sdf:130-1

$$$$
sdf/inactives_sanitized.sdf:131
                    3D
 Schrodinger Suite 2020-1.
 68 71  0  0  1  0            999 V2000
    2.2698   -2.0543   -3.3961 S   0  0  0  0  0  0
    1.8842   -0.7378   -1.1778 C   0  0  0  0  0  0
    1.5962   -1.9328   -1.7459 C   0  0  0  0  0  0
    2.6801    0.1479   -2.0588 C   0  0  0  0  0  0
    2.9697   -0.4225   -3.2904 C   0  0  0  0  0  0
   -0.0641   -0.1455    0.3396 C   0  0  0  0  0  0
    1.4657   -0.3343    0.2469 C   0  0  1  0  0  0
   -2.1221    3.0640    0.2129 C   0  0  2  0  0  0
   -0.5250    1.0788    0.0274 N   0  0  0  0  0  0
    3.1698    1.4381   -1.8155 C   0  0  0  0  0  0
   -1.9250    1.5201    0.0541 C   0  0  2  0  0  0
   -1.3416    3.6180    1.4309 C   0  0  0  0  0  0
    4.4400    3.4800   -2.5004 C   0  0  0  0  0  0
    3.9297    2.1348   -2.7742 C   0  0  0  0  0  0
    3.3310   -3.0652   -3.4547 O   0  0  0  0  0  0
    1.1997   -2.0910   -4.3984 O   0  0  0  0  0  0
    3.7108    0.2197   -4.2759 C   0  0  0  0  0  0
    5.6360    3.8214   -2.9650 N   0  3  0  0  0  0
    2.0360   -1.2529    1.3616 C   0  0  0  0  0  0
   -0.7932   -1.0771    0.6843 O   0  0  0  0  0  0
    4.1873    1.5012   -4.0033 C   0  0  0  0  0  0
   -1.8928    3.9000    2.4983 O   0  0  0  0  0  0
    3.6929    4.3208   -1.7955 N   0  0  0  0  0  0
   -0.0218    3.7571    1.1699 O   0  0  0  0  0  0
    3.5600   -1.2548    1.4015 C   0  0  0  0  0  0
   -3.6265    3.4309    0.3043 C   0  0  0  0  0  0
   -2.7595    0.9691   -1.1334 C   0  0  0  0  0  0
    0.8771    4.1947    2.1797 C   0  0  0  0  0  0
    4.2771   -2.3017    0.8156 C   0  0  0  0  0  0
    4.2384   -0.1925    2.0059 C   0  0  0  0  0  0
   -4.3796    2.9492   -0.9459 C   0  0  0  0  0  0
    2.3080    4.1536    1.6346 C   0  0  0  0  0  0
   -4.2330    1.4274   -1.1207 C   0  0  0  0  0  0
    5.6304   -0.1762    2.0222 C   0  0  0  0  0  0
    5.6691   -2.2850    0.8327 C   0  0  0  0  0  0
    6.3392   -1.2227    1.4359 C   0  0  0  0  0  0
    1.0414   -2.7523   -1.3141 H   0  0  0  0  0  0
    1.8920    0.6459    0.4562 H   0  0  0  0  0  0
   -1.7113    3.5577   -0.6690 H   0  0  0  0  0  0
    0.1402    1.7646   -0.2976 H   0  0  0  0  0  0
    2.9732    1.9133   -0.8664 H   0  0  0  0  0  0
   -2.3555    1.0778    0.9576 H   0  0  0  0  0  0
    3.9233   -0.2440   -5.2283 H   0  0  0  0  0  0
    6.0016    4.7454   -2.7869 H   0  0  0  0  0  0
    1.6729   -0.9340    2.3409 H   0  0  0  0  0  0
    1.6727   -2.2760    1.2462 H   0  0  0  0  0  0
    4.7613    2.0023   -4.7703 H   0  0  0  0  0  0
    4.0311    5.2516   -1.5993 H   0  0  0  0  0  0
    2.7849    4.0282   -1.4648 H   0  0  0  0  0  0
   -4.0870    2.9943    1.1931 H   0  0  0  0  0  0
   -3.7486    4.5137    0.3681 H   0  0  0  0  0  0
   -2.3083    1.3064   -2.0680 H   0  0  0  0  0  0
   -2.7276   -0.1213   -1.1478 H   0  0  0  0  0  0
    0.6225    5.2087    2.4924 H   0  0  0  0  0  0
    0.7981    3.5493    3.0565 H   0  0  0  0  0  0
    3.7592   -3.1225    0.3406 H   0  0  0  0  0  0
    3.6891    0.6218    2.4563 H   0  0  0  0  0  0
   -3.9982    3.4616   -1.8307 H   0  0  0  0  0  0
   -5.4350    3.2135   -0.8696 H   0  0  0  0  0  0
    3.0205    4.4717    2.3958 H   0  0  0  0  0  0
    2.4203    4.8176    0.7775 H   0  0  0  0  0  0
    2.5837    3.1457    1.3219 H   0  0  0  0  0  0
   -4.7567    0.9223   -0.3074 H   0  0  0  0  0  0
   -4.7275    1.1101   -2.0395 H   0  0  0  0  0  0
    6.1581    0.6438    2.4866 H   0  0  0  0  0  0
    6.2267   -3.0912    0.3790 H   0  0  0  0  0  0
    7.4191   -1.2104    1.4490 H   0  0  0  0  0  0
    6.1784    3.1529   -3.4930 H   0  0  0  0  0  0
  1  3  1  0  0  0
  1  5  1  0  0  0
  1 15  2  0  0  0
  1 16  2  0  0  0
  2  3  2  0  0  0
  2  7  1  0  0  0
  2  4  1  0  0  0
  3 37  1  0  0  0
  4  5  2  0  0  0
  4 10  1  0  0  0
  5 17  1  0  0  0
  6  7  1  0  0  0
  6  9  1  0  0  0
  6 20  2  0  0  0
  7 19  1  0  0  0
  7 38  1  0  0  0
  8 11  1  0  0  0
  8 12  1  0  0  0
  8 26  1  0  0  0
  8 39  1  0  0  0
  9 11  1  0  0  0
  9 40  1  0  0  0
 10 14  2  0  0  0
 10 41  1  0  0  0
 11 27  1  0  0  0
 11 42  1  0  0  0
 12 22  2  0  0  0
 12 24  1  0  0  0
 13 14  1  0  0  0
 13 18  2  0  0  0
 13 23  1  0  0  0
 14 21  1  0  0  0
 17 21  2  0  0  0
 17 43  1  0  0  0
 18 44  1  0  0  0
 18 68  1  0  0  0
 19 25  1  0  0  0
 19 45  1  0  0  0
 19 46  1  0  0  0
 21 47  1  0  0  0
 23 48  1  0  0  0
 23 49  1  0  0  0
 24 28  1  0  0  0
 25 29  2  0  0  0
 25 30  1  0  0  0
 26 31  1  0  0  0
 26 50  1  0  0  0
 26 51  1  0  0  0
 27 33  1  0  0  0
 27 52  1  0  0  0
 27 53  1  0  0  0
 28 32  1  0  0  0
 28 54  1  0  0  0
 28 55  1  0  0  0
 29 35  1  0  0  0
 29 56  1  0  0  0
 30 34  2  0  0  0
 30 57  1  0  0  0
 31 33  1  0  0  0
 31 58  1  0  0  0
 31 59  1  0  0  0
 32 60  1  0  0  0
 32 61  1  0  0  0
 32 62  1  0  0  0
 33 63  1  0  0  0
 33 64  1  0  0  0
 34 36  1  0  0  0
 34 65  1  0  0  0
 35 36  2  0  0  0
 35 66  1  0  0  0
 36 67  1  0  0  0
M  CHG  1  18   1
M  END
> <chembl_id>
CHEMBL360121

> <chembl_pref_name>
None

> <i_m_ct_stereo_status>
1

> <s_m_source_file>
sdf/inactives_sanitized.sdf

> <i_m_source_file_index>
131

> <i_lp_mmshare_version>
49012

> <i_f3d_flags>
0

> <s_epik_input>
W0hdXE49QyhbTkgyXSlcYyhbY0hdMSlbY0hdW2NIXWMoYzEyKVMoPU8pKD1PKVtDSF09QzJbQ0BIXShbQ0gyXWMzW2NIXVtjSF1bY0hdW2NIXVtjSF0zKUMoPU8pW05IXVtDQEhdKFtDSDJdW0NIMl1bQ0gyXVtDSDJdNClbQ0BASF00Qyg9TylPW0NIMl1bQ0gzXQ==

> <s_epik_cmdline>
J2VwaWtfcHl0aG9uJywgJy1waHQnLCAnMC41JywgJy1waCcsICc3LjUnLCAnLW50JywgJy1tYScsICcyMDAnLCAnLWltYWUnLCAnPGluZmlsZS5tYWU+JywgJy1vbWFlJywgJzxvdXRmaWxlLm1hZT4n

> <r_lp_tautomer_probability>
1

> <r_epik_Ionization_Penalty>
  0.0010

> <r_epik_Ionization_Penalty_Charging>
  0.0010

> <r_epik_Ionization_Penalty_Neutral>
  0.0000

> <r_epik_State_Penalty>
 -0.0000

> <r_epik_Charging_Adjusted_Penalty>
0.000984797499885888

> <i_epik_Tot_Q>
1

> <i_epik_Tot_abs_Q>
1

> <s_epik_Chemistry_Notes>
This compound has an ester and may undergo hydrolysis at high or low pH. This compound has an imine and may undergo hydrolysis.

> <s_lp_Force_Field>
OPLS3e

> <r_lp_Energy>
22.346815

> <b_lp_Chiralities_Consistent>
1

> <s_lp_Variant>
sdf/inactives_sanitized.sdf:131-1

$$$$
sdf/inactives_sanitized.sdf:132
                    3D
 Schrodinger Suite 2020-1.
 60 63  0  0  1  0            999 V2000
    0.0549   -0.1040    0.0380 C   0  0  0  0  0  0
   -0.7058    1.1131    0.1028 C   0  0  0  0  0  0
    2.2950   -0.8639    0.9658 C   0  0  0  0  0  0
    1.5687   -0.1502   -0.1942 C   0  0  1  0  0  0
   -0.7781   -1.2025    0.1741 C   0  0  0  0  0  0
   -2.4620   -0.8369    0.4060 S   0  0  0  0  0  0
   -0.2838    2.4538   -0.0073 C   0  0  0  0  0  0
   -0.7440    4.8984   -0.0371 C   0  0  0  0  0  0
   -1.1987    3.5129    0.0814 C   0  0  0  0  0  0
   -2.0990    0.8736    0.3050 C   0  0  0  0  0  0
    2.9970   -0.0831    1.8075 N   0  0  0  0  0  0
   -1.5079    5.7768   -0.6767 N   0  3  0  0  0  0
    1.9190   -0.7870   -1.5652 C   0  0  0  0  0  0
    2.2164   -2.0879    1.0896 O   0  0  0  0  0  0
   -2.5516    3.2256    0.2841 C   0  0  0  0  0  0
   -3.0210    1.9221    0.3987 C   0  0  0  0  0  0
    0.4215    5.2429    0.4987 N   0  0  0  0  0  0
    3.8000   -0.5564    2.9411 C   0  0  2  0  0  0
    1.3752    0.0021   -2.7512 C   0  0  0  0  0  0
    4.0805    0.6006    3.9338 C   0  0  0  0  0  0
    5.1596   -1.1591    2.4929 C   0  0  0  0  0  0
    5.0102    1.6760    3.3250 C   0  0  0  0  0  0
    6.0893   -0.0916    1.8730 C   0  0  0  0  0  0
    6.3544    1.0583    2.8728 C   0  0  1  0  0  0
    0.1736   -0.3792   -3.3553 C   0  0  0  0  0  0
    2.0737    1.1171   -3.2224 C   0  0  0  0  0  0
    7.3061    2.1170    2.2896 C   0  0  0  0  0  0
   -0.3288    0.3546   -4.4267 C   0  0  0  0  0  0
    1.5718    1.8494   -4.2949 C   0  0  0  0  0  0
    0.3728    1.4651   -4.8918 C   0  0  0  0  0  0
    1.9674    0.8642   -0.2261 H   0  0  0  0  0  0
   -0.4725   -2.2387    0.1514 H   0  0  0  0  0  0
    0.7571    2.6814   -0.1756 H   0  0  0  0  0  0
    3.0975    0.8941    1.5759 H   0  0  0  0  0  0
   -2.3870    5.4802   -1.0753 H   0  0  0  0  0  0
    3.0023   -0.8616   -1.6817 H   0  0  0  0  0  0
    1.5636   -1.8183   -1.6191 H   0  0  0  0  0  0
   -3.2618    4.0357    0.3607 H   0  0  0  0  0  0
   -4.0726    1.7285    0.5543 H   0  0  0  0  0  0
    0.7487    6.1949    0.4234 H   0  0  0  0  0  0
    0.9730    4.5510    0.9850 H   0  0  0  0  0  0
    3.2186   -1.3173    3.4668 H   0  0  0  0  0  0
    3.1416    1.0600    4.2466 H   0  0  0  0  0  0
    4.5302    0.2017    4.8446 H   0  0  0  0  0  0
    5.6540   -1.6229    3.3479 H   0  0  0  0  0  0
    4.9962   -1.9667    1.7779 H   0  0  0  0  0  0
    4.5232    2.1679    2.4814 H   0  0  0  0  0  0
    5.1908    2.4743    4.0462 H   0  0  0  0  0  0
    7.0334   -0.5433    1.5655 H   0  0  0  0  0  0
    5.6569    0.3035    0.9522 H   0  0  0  0  0  0
    6.8245    0.6200    3.7554 H   0  0  0  0  0  0
   -0.3737   -1.2372   -2.9922 H   0  0  0  0  0  0
    3.0014    1.4175   -2.7575 H   0  0  0  0  0  0
    6.8849    2.5866    1.3999 H   0  0  0  0  0  0
    8.2628    1.6748    2.0094 H   0  0  0  0  0  0
    7.5119    2.9046    3.0151 H   0  0  0  0  0  0
   -1.2577    0.0643   -4.8953 H   0  0  0  0  0  0
    2.1099    2.7106   -4.6626 H   0  0  0  0  0  0
   -0.0164    2.0328   -5.7242 H   0  0  0  0  0  0
   -1.2061    6.7360   -0.7665 H   0  0  0  0  0  0
  1  2  1  0  0  0
  1  4  1  0  0  0
  1  5  2  0  0  0
  2  7  2  0  0  0
  2 10  1  0  0  0
  3  4  1  0  0  0
  3 11  1  0  0  0
  3 14  2  0  0  0
  4 13  1  0  0  0
  4 31  1  0  0  0
  5  6  1  0  0  0
  5 32  1  0  0  0
  6 10  1  0  0  0
  7  9  1  0  0  0
  7 33  1  0  0  0
  8  9  1  0  0  0
  8 12  2  0  0  0
  8 17  1  0  0  0
  9 15  2  0  0  0
 10 16  2  0  0  0
 11 18  1  0  0  0
 11 34  1  0  0  0
 12 35  1  0  0  0
 12 60  1  0  0  0
 13 19  1  0  0  0
 13 36  1  0  0  0
 13 37  1  0  0  0
 15 16  1  0  0  0
 15 38  1  0  0  0
 16 39  1  0  0  0
 17 40  1  0  0  0
 17 41  1  0  0  0
 18 20  1  0  0  0
 18 21  1  0  0  0
 18 42  1  0  0  0
 19 25  2  0  0  0
 19 26  1  0  0  0
 20 22  1  0  0  0
 20 43  1  0  0  0
 20 44  1  0  0  0
 21 23  1  0  0  0
 21 45  1  0  0  0
 21 46  1  0  0  0
 22 24  1  0  0  0
 22 47  1  0  0  0
 22 48  1  0  0  0
 23 24  1  0  0  0
 23 49  1  0  0  0
 23 50  1  0  0  0
 24 27  1  0  0  0
 24 51  1  0  0  0
 25 28  1  0  0  0
 25 52  1  0  0  0
 26 29  2  0  0  0
 26 53  1  0  0  0
 27 54  1  0  0  0
 27 55  1  0  0  0
 27 56  1  0  0  0
 28 30  2  0  0  0
 28 57  1  0  0  0
 29 30  1  0  0  0
 29 58  1  0  0  0
 30 59  1  0  0  0
M  CHG  1  12   1
M  END
> <chembl_id>
CHEMBL182939

> <chembl_pref_name>
None

> <s_m_source_file>
sdf/inactives_sanitized.sdf

> <i_m_source_file_index>
132

> <i_lp_mmshare_version>
49012

> <i_m_ct_stereo_status>
1

> <i_f3d_flags>
0

> <s_epik_input>
W0hdXE49QyhbTkgyXSlcYyhbY0hdMSlbY0hdW2NIXWMoYzEyKXNbY0hdYzJbQ0BIXShbQ0gyXWMzW2NIXVtjSF1bY0hdW2NIXVtjSF0zKUMoPU8pW05IXVtDQEBIXTRbQ0gyXVtDSDJdW0NASF0oW0NIM10pW0NIMl1bQ0gyXTQ=

> <s_epik_cmdline>
J2VwaWtfcHl0aG9uJywgJy1waHQnLCAnMC41JywgJy1waCcsICc3LjUnLCAnLW50JywgJy1tYScsICcyMDAnLCAnLWltYWUnLCAnPGluZmlsZS5tYWU+JywgJy1vbWFlJywgJzxvdXRmaWxlLm1hZT4n

> <r_lp_tautomer_probability>
1

> <r_epik_Ionization_Penalty>
  0.0010

> <r_epik_Ionization_Penalty_Charging>
  0.0010

> <r_epik_Ionization_Penalty_Neutral>
  0.0000

> <r_epik_State_Penalty>
 -0.0000

> <r_epik_Charging_Adjusted_Penalty>
0.000984797499885888

> <i_epik_Tot_Q>
1

> <i_epik_Tot_abs_Q>
1

> <s_epik_Chemistry_Notes>
This compound has an imine and may undergo hydrolysis.

> <s_lp_Force_Field>
OPLS3e

> <r_lp_Energy>
36.38965

> <b_lp_Chiralities_Consistent>
1

> <s_lp_Variant>
sdf/inactives_sanitized.sdf:132-1

$$$$
sdf/inactives_sanitized.sdf:133
                    3D
 Schrodinger Suite 2020-1.
 47 50  0  0  1  0            999 V2000
   -0.6347   -1.7155    5.8019 C   0  0  0  0  0  0
   -0.4372   -0.5363    6.5156 C   0  0  0  0  0  0
   -0.2693    0.6719    5.8408 C   0  0  0  0  0  0
   -0.6695   -1.7162    4.4054 C   0  0  0  0  0  0
   -0.4994   -0.5039    3.7055 C   0  0  0  0  0  0
   -0.3031    0.6666    4.4639 N   0  0  0  0  0  0
   -0.1602    1.7587    3.6738 N   0  0  0  0  0  0
   -0.4647   -0.0650    2.3560 C   0  0  0  0  0  0
   -0.2545    1.3223    2.4368 C   0  0  0  0  0  0
   -0.1444    2.2264    1.2131 C   0  0  0  0  0  0
   -0.6829    1.4457   -0.0113 C   0  0  0  0  0  0
   -0.0592    0.0211   -0.1372 C   0  0  1  0  0  0
   -0.6432   -0.8207    1.0386 C   0  0  0  0  0  0
   -0.5000   -0.6422   -1.4681 C   0  0  0  0  0  0
    1.4166   -0.0071   -0.0776 N   0  0  0  0  0  0
    2.3054    0.6180   -0.8789 C   0  0  0  0  0  0
    3.7655    0.3982   -0.5495 C   0  0  0  0  0  0
    1.9758    1.3166   -1.8392 O   0  0  0  0  0  0
   -0.8664   -2.8864    3.7195 O   0  0  0  0  0  0
    4.7362    0.5854   -1.5433 C   0  0  0  0  0  0
    6.0856    0.3900   -1.2615 C   0  0  0  0  0  0
    6.4790    0.0089    0.0216 C   0  0  0  0  0  0
    5.5250   -0.1746    1.0229 C   0  0  0  0  0  0
    4.1758    0.0199    0.7393 C   0  0  0  0  0  0
    7.8894   -0.1959    0.3171 C   0  0  0  0  0  0
    9.0108   -0.3588    0.5521 N   0  0  0  0  0  0
   -0.0540    1.9774    6.5932 C   0  0  0  0  0  0
   -0.7629   -2.6419    6.3432 H   0  0  0  0  0  0
   -0.4163   -0.5660    7.5955 H   0  0  0  0  0  0
   -0.7114    3.1487    1.3450 H   0  0  0  0  0  0
    0.8945    2.5132    1.0473 H   0  0  0  0  0  0
   -1.7731    1.3915    0.0100 H   0  0  0  0  0  0
   -0.4347    2.0359   -0.8944 H   0  0  0  0  0  0
   -0.1570   -1.7968    1.0834 H   0  0  0  0  0  0
   -1.7045   -1.0227    0.8855 H   0  0  0  0  0  0
   -1.5863   -0.7169   -1.5332 H   0  0  0  0  0  0
   -0.1013   -1.6531   -1.5653 H   0  0  0  0  0  0
   -0.1748   -0.0767   -2.3416 H   0  0  0  0  0  0
    1.7937   -0.5359    0.6950 H   0  0  0  0  0  0
   -0.9703   -3.6481    4.2946 H   0  0  0  0  0  0
    4.4540    0.8798   -2.5444 H   0  0  0  0  0  0
    6.8150    0.5370   -2.0461 H   0  0  0  0  0  0
    5.8182   -0.4661    2.0222 H   0  0  0  0  0  0
    3.4593   -0.1220    1.5358 H   0  0  0  0  0  0
   -0.0501    1.8254    7.6732 H   0  0  0  0  0  0
   -0.8469    2.6874    6.3556 H   0  0  0  0  0  0
    0.8998    2.4252    6.3124 H   0  0  0  0  0  0
  1  2  1  0  0  0
  1  4  2  0  0  0
  1 28  1  0  0  0
  2  3  2  0  0  0
  2 29  1  0  0  0
  3  6  1  0  0  0
  3 27  1  0  0  0
  4  5  1  0  0  0
  4 19  1  0  0  0
  5  6  1  0  0  0
  5  8  2  0  0  0
  6  7  1  0  0  0
  7  9  2  0  0  0
  8  9  1  0  0  0
  8 13  1  0  0  0
  9 10  1  0  0  0
 10 11  1  0  0  0
 10 30  1  0  0  0
 10 31  1  0  0  0
 11 12  1  0  0  0
 11 32  1  0  0  0
 11 33  1  0  0  0
 12 13  1  0  0  0
 12 14  1  0  0  0
 12 15  1  0  0  0
 13 34  1  0  0  0
 13 35  1  0  0  0
 14 36  1  0  0  0
 14 37  1  0  0  0
 14 38  1  0  0  0
 15 16  1  0  0  0
 15 39  1  0  0  0
 16 17  1  0  0  0
 16 18  2  0  0  0
 17 20  2  0  0  0
 17 24  1  0  0  0
 19 40  1  0  0  0
 20 21  1  0  0  0
 20 41  1  0  0  0
 21 22  2  0  0  0
 21 42  1  0  0  0
 22 23  1  0  0  0
 22 25  1  0  0  0
 23 24  2  0  0  0
 23 43  1  0  0  0
 24 44  1  0  0  0
 25 26  3  0  0  0
 27 45  1  0  0  0
 27 46  1  0  0  0
 27 47  1  0  0  0
M  END
> <chembl_id>
CHEMBL3423048

> <chembl_pref_name>
None

> <s_m_source_file>
sdf/inactives_sanitized.sdf

> <i_m_source_file_index>
133

> <i_lp_mmshare_version>
49012

> <i_m_ct_stereo_status>
1

> <i_f3d_flags>
0

> <s_epik_input>
W09IXWMxW2NIXVtjSF1jKFtDSDNdKW4oYzEyKW5jM2MyW0NIMl1bQ0BAXShbQ0gzXSkoW0NIMl1bQ0gyXTMpW05IXUMoPU8pYzRbY0hdW2NIXWMoQyNOKVtjSF1bY0hdNA==

> <s_epik_cmdline>
J2VwaWtfcHl0aG9uJywgJy1waHQnLCAnMC41JywgJy1waCcsICc3LjUnLCAnLW50JywgJy1tYScsICcyMDAnLCAnLWltYWUnLCAnPGluZmlsZS5tYWU+JywgJy1vbWFlJywgJzxvdXRmaWxlLm1hZT4n

> <r_epik_Ionization_Penalty>
  0.0171

> <r_epik_Ionization_Penalty_Charging>
  0.0000

> <r_epik_Ionization_Penalty_Neutral>
  0.0171

> <r_epik_State_Penalty>
  0.0136

> <r_epik_Charging_Adjusted_Penalty>
0.0135721177526746

> <i_epik_Tot_Q>
0

> <i_epik_Tot_abs_Q>
0

> <s_lp_Force_Field>
OPLS3e

> <r_lp_Energy>
26.587935

> <b_lp_Chiralities_Consistent>
1

> <s_lp_Variant>
sdf/inactives_sanitized.sdf:133-1

$$$$
sdf/inactives_sanitized.sdf:134
                    3D
 Schrodinger Suite 2020-1.
 45 48  0  0  1  0            999 V2000
   -0.1893    2.3934    0.6160 N   0  0  0  0  0  0
   -1.0713    3.5086   -1.1908 C   0  0  0  0  0  0
   -1.6732    4.5711   -1.8702 C   0  0  0  0  0  0
   -1.1017    4.7040    0.9277 C   0  0  0  0  0  0
   -1.7037    5.7668    0.2534 C   0  0  0  0  0  0
   -1.9881    5.7172   -1.1149 C   0  0  0  0  0  0
   -0.7790    3.5563    0.1936 C   0  0  0  0  0  0
   -0.1114    1.6461   -0.4605 C   0  0  0  0  0  0
   -0.6317    2.2632   -1.5746 N   0  0  0  0  0  0
    0.4642    0.2415   -0.5309 C   0  0  0  0  0  0
    1.1927   -0.2152    0.7534 C   0  0  0  0  0  0
    1.6962   -1.5865    0.6809 N   0  0  0  0  0  0
    2.7748   -1.9853   -0.0224 C   0  0  0  0  0  0
    3.0955   -3.4657    0.0077 C   0  0  0  0  0  0
    3.4626   -1.2046   -0.6845 O   0  0  0  0  0  0
    2.5195   -4.3246    0.9580 C   0  0  0  0  0  0
    2.8276   -5.6821    0.9661 C   0  0  0  0  0  0
    3.7191   -6.2033    0.0237 C   0  0  0  0  0  0
    4.3016   -5.3565   -0.9238 C   0  0  0  0  0  0
    3.9920   -3.9996   -0.9286 C   0  0  0  0  0  0
    4.0298   -7.5808    0.0285 N   0  0  0  0  0  0
    3.2662   -8.6391    0.4717 C   0  0  0  0  0  0
    3.8762   -9.7877    0.3194 N   0  0  0  0  0  0
    5.1140   -9.5107   -0.2517 N   0  0  0  0  0  0
    5.1735   -8.2122   -0.4105 C   0  0  0  0  0  0
   -2.5822    6.8459   -1.6466 O   0  0  0  0  0  0
   -2.8944    6.8822   -3.0352 C   0  0  0  0  0  0
   -1.8812    4.5017   -2.9268 H   0  0  0  0  0  0
   -0.8920    4.7691    1.9853 H   0  0  0  0  0  0
   -1.9564    6.6575    0.8104 H   0  0  0  0  0  0
   -0.3355   -0.4649   -0.7571 H   0  0  0  0  0  0
    1.1598    0.1860   -1.3692 H   0  0  0  0  0  0
    2.0080    0.4702    0.9946 H   0  0  0  0  0  0
    0.5064   -0.1646    1.5997 H   0  0  0  0  0  0
    1.1850   -2.2774    1.2102 H   0  0  0  0  0  0
    1.8319   -3.9548    1.7049 H   0  0  0  0  0  0
    2.3737   -6.3164    1.7136 H   0  0  0  0  0  0
    4.9880   -5.7382   -1.6657 H   0  0  0  0  0  0
    4.4548   -3.3695   -1.6753 H   0  0  0  0  0  0
    2.2792   -8.4808    0.8806 H   0  0  0  0  0  0
    5.9978   -7.6485   -0.8222 H   0  0  0  0  0  0
   -3.3484    7.8430   -3.2768 H   0  0  0  0  0  0
   -3.6083    6.1026   -3.3051 H   0  0  0  0  0  0
   -1.9991    6.7771   -3.6497 H   0  0  0  0  0  0
   -0.6565    1.8346   -2.4885 H   0  0  0  0  0  0
  1  7  1  0  0  0
  1  8  2  0  0  0
  2  3  2  0  0  0
  2  7  1  0  0  0
  2  9  1  0  0  0
  3  6  1  0  0  0
  3 28  1  0  0  0
  4  7  2  0  0  0
  4  5  1  0  0  0
  4 29  1  0  0  0
  5  6  2  0  0  0
  5 30  1  0  0  0
  6 26  1  0  0  0
  8  9  1  0  0  0
  8 10  1  0  0  0
  9 45  1  0  0  0
 10 11  1  0  0  0
 10 31  1  0  0  0
 10 32  1  0  0  0
 11 12  1  0  0  0
 11 33  1  0  0  0
 11 34  1  0  0  0
 12 13  1  0  0  0
 12 35  1  0  0  0
 13 14  1  0  0  0
 13 15  2  0  0  0
 14 16  2  0  0  0
 14 20  1  0  0  0
 16 17  1  0  0  0
 16 36  1  0  0  0
 17 18  2  0  0  0
 17 37  1  0  0  0
 18 19  1  0  0  0
 18 21  1  0  0  0
 19 20  2  0  0  0
 19 38  1  0  0  0
 20 39  1  0  0  0
 21 22  1  0  0  0
 21 25  1  0  0  0
 22 23  2  0  0  0
 22 40  1  0  0  0
 23 24  1  0  0  0
 24 25  2  0  0  0
 25 41  1  0  0  0
 26 27  1  0  0  0
 27 42  1  0  0  0
 27 43  1  0  0  0
 27 44  1  0  0  0
M  END
> <chembl_id>
CHEMBL3423029

> <chembl_pref_name>
None

> <s_m_source_file>
sdf/inactives_sanitized.sdf

> <i_m_source_file_index>
134

> <i_lp_mmshare_version>
49012

> <i_m_ct_stereo_status>
1

> <i_f3d_flags>
0

> <s_epik_input>
W0NIM11PYyhbY0hdMSlbY0hdW2NIXWMoYzEyKVtuSF1jKG4yKVtDSDJdW0NIMl1bTkhdQyg9TyljM1tjSF1bY0hdYyhbY0hdW2NIXTMpLW40W2NIXW5uW2NIXTQ=

> <s_epik_cmdline>
J2VwaWtfcHl0aG9uJywgJy1waHQnLCAnMC41JywgJy1waCcsICc3LjUnLCAnLW50JywgJy1tYScsICcyMDAnLCAnLWltYWUnLCAnPGluZmlsZS5tYWU+JywgJy1vbWFlJywgJzxvdXRmaWxlLm1hZT4n

> <r_lp_tautomer_probability>
1

> <r_epik_Ionization_Penalty>
  0.0225

> <r_epik_Ionization_Penalty_Charging>
  0.0000

> <r_epik_Ionization_Penalty_Neutral>
  0.0225

> <r_epik_State_Penalty>
  0.2400

> <r_epik_Charging_Adjusted_Penalty>
0.240046072800518

> <i_epik_Tot_Q>
0

> <i_epik_Tot_abs_Q>
0

> <s_lp_Force_Field>
OPLS3e

> <r_lp_Energy>
25.444168

> <b_lp_Chiralities_Consistent>
1

> <s_lp_Variant>
sdf/inactives_sanitized.sdf:134-1

$$$$
sdf/inactives_sanitized.sdf:135
                    3D
 Schrodinger Suite 2020-1.
 52 56  0  0  1  0            999 V2000
   -0.5895   -1.5700    5.8566 C   0  0  0  0  0  0
   -0.3327   -0.3683    6.5116 C   0  0  0  0  0  0
   -0.1561    0.8052    5.7802 C   0  0  0  0  0  0
   -0.6749   -1.6284    4.4636 C   0  0  0  0  0  0
   -0.4973   -0.4518    3.7069 C   0  0  0  0  0  0
   -0.2412    0.7433    4.4069 N   0  0  0  0  0  0
   -0.0955    1.7968    3.5658 N   0  0  0  0  0  0
   -0.4956   -0.0710    2.3398 C   0  0  0  0  0  0
   -0.2407    1.3107    2.3527 C   0  0  0  0  0  0
   -0.1286    2.1557    1.0868 C   0  0  0  0  0  0
   -0.6771    1.3256   -0.1025 C   0  0  0  0  0  0
   -0.0962   -0.1187   -0.1515 C   0  0  1  0  0  0
   -0.7289   -0.8755    1.0618 C   0  0  0  0  0  0
   -0.5411   -0.7909   -1.4762 C   0  0  0  0  0  0
    1.3816   -0.0964   -0.1182 N   0  0  0  0  0  0
    2.2429   -1.1348   -0.0807 C   0  0  0  0  0  0
    1.8968   -2.3162   -0.1144 O   0  0  0  0  0  0
   -0.9258   -2.8205    3.8355 O   0  0  0  0  0  0
    3.7019   -0.7563    0.0223 C   0  0  0  0  0  0
    4.2035    0.2840   -0.7749 C   0  0  0  0  0  0
    5.5420    0.6638   -0.7036 C   0  0  0  0  0  0
    6.4163    0.0156    0.1753 C   0  0  0  0  0  0
    5.9195   -1.0148    0.9854 C   0  0  0  0  0  0
    4.5788   -1.4002    0.9207 C   0  0  0  0  0  0
    4.0629   -2.6568    1.9998 Cl  0  0  0  0  0  0
    7.7778    0.4052    0.2408 N   0  0  0  0  0  0
    8.5303    1.0728   -0.7002 C   0  0  0  0  0  0
    9.7871    1.2010   -0.1327 C   0  0  0  0  0  0
    9.8054    0.6525    1.0652 N   0  0  0  0  0  0
    8.5433    0.1441    1.3160 N   0  0  0  0  0  0
    0.1280    2.1331    6.4674 C   0  0  0  0  0  0
   -0.7229   -2.4690    6.4412 H   0  0  0  0  0  0
   -0.2710   -0.3534    7.5900 H   0  0  0  0  0  0
   -0.6877    3.0878    1.1780 H   0  0  0  0  0  0
    0.9128    2.4243    0.9052 H   0  0  0  0  0  0
   -1.7689    1.3087   -0.0971 H   0  0  0  0  0  0
   -0.3924    1.8615   -1.0097 H   0  0  0  0  0  0
   -0.3147   -1.8790    1.1568 H   0  0  0  0  0  0
   -1.8008   -1.0158    0.9135 H   0  0  0  0  0  0
   -1.6250   -0.7572   -1.5935 H   0  0  0  0  0  0
   -0.2546   -1.8417   -1.5241 H   0  0  0  0  0  0
   -0.1081   -0.2932   -2.3452 H   0  0  0  0  0  0
    1.7839    0.8273   -0.0580 H   0  0  0  0  0  0
   -1.0151   -3.5577    4.4439 H   0  0  0  0  0  0
    3.5588    0.8049   -1.4689 H   0  0  0  0  0  0
    5.8843    1.4703   -1.3352 H   0  0  0  0  0  0
    6.5724   -1.5267    1.6780 H   0  0  0  0  0  0
    8.1242    1.3789   -1.6526 H   0  0  0  0  0  0
   10.6552    1.6710   -0.5713 H   0  0  0  0  0  0
    0.1540    2.0287    7.5527 H   0  0  0  0  0  0
   -0.6426    2.8630    6.2172 H   0  0  0  0  0  0
    1.0911    2.5292    6.1435 H   0  0  0  0  0  0
  1  2  1  0  0  0
  1  4  2  0  0  0
  1 32  1  0  0  0
  2  3  2  0  0  0
  2 33  1  0  0  0
  3  6  1  0  0  0
  3 31  1  0  0  0
  4  5  1  0  0  0
  4 18  1  0  0  0
  5  6  1  0  0  0
  5  8  2  0  0  0
  6  7  1  0  0  0
  7  9  2  0  0  0
  8  9  1  0  0  0
  8 13  1  0  0  0
  9 10  1  0  0  0
 10 11  1  0  0  0
 10 34  1  0  0  0
 10 35  1  0  0  0
 11 12  1  0  0  0
 11 36  1  0  0  0
 11 37  1  0  0  0
 12 13  1  0  0  0
 12 14  1  0  0  0
 12 15  1  0  0  0
 13 38  1  0  0  0
 13 39  1  0  0  0
 14 40  1  0  0  0
 14 41  1  0  0  0
 14 42  1  0  0  0
 15 16  1  0  0  0
 15 43  1  0  0  0
 16 17  2  0  0  0
 16 19  1  0  0  0
 18 44  1  0  0  0
 19 20  2  0  0  0
 19 24  1  0  0  0
 20 21  1  0  0  0
 20 45  1  0  0  0
 21 22  2  0  0  0
 21 46  1  0  0  0
 22 23  1  0  0  0
 22 26  1  0  0  0
 23 24  2  0  0  0
 23 47  1  0  0  0
 24 25  1  0  0  0
 26 27  1  0  0  0
 26 30  1  0  0  0
 27 28  2  0  0  0
 27 48  1  0  0  0
 28 29  1  0  0  0
 28 49  1  0  0  0
 29 30  2  0  0  0
 31 50  1  0  0  0
 31 51  1  0  0  0
 31 52  1  0  0  0
M  END
> <chembl_id>
CHEMBL3423051

> <chembl_pref_name>
None

> <s_m_source_file>
sdf/inactives_sanitized.sdf

> <i_m_source_file_index>
135

> <i_lp_mmshare_version>
49012

> <i_m_ct_stereo_status>
1

> <i_f3d_flags>
0

> <s_epik_input>
W09IXWMxW2NIXVtjSF1jKFtDSDNdKW4oYzEyKW5jM2MyW0NIMl1bQ0BAXShbQ0gzXSkoW0NIMl1bQ0gyXTMpW05IXUMoPU8pYzRbY0hdW2NIXWMoW2NIXWM0Q2wpLW41W2NIXVtjSF1ubjU=

> <s_epik_cmdline>
J2VwaWtfcHl0aG9uJywgJy1waHQnLCAnMC41JywgJy1waCcsICc3LjUnLCAnLW50JywgJy1tYScsICcyMDAnLCAnLWltYWUnLCAnPGluZmlsZS5tYWU+JywgJy1vbWFlJywgJzxvdXRmaWxlLm1hZT4n

> <r_lp_tautomer_probability>
1

> <r_epik_Ionization_Penalty>
  0.0172

> <r_epik_Ionization_Penalty_Charging>
  0.0000

> <r_epik_Ionization_Penalty_Neutral>
  0.0172

> <r_epik_State_Penalty>
  0.0136

> <r_epik_Charging_Adjusted_Penalty>
0.0135721177526746

> <i_epik_Tot_Q>
0

> <i_epik_Tot_abs_Q>
0

> <s_lp_Force_Field>
OPLS3e

> <r_lp_Energy>
35.557769

> <b_lp_Chiralities_Consistent>
1

> <s_lp_Variant>
sdf/inactives_sanitized.sdf:135-1

$$$$
sdf/inactives_sanitized.sdf:136
                    3D
 Schrodinger Suite 2020-1.
 79 84  0  0  1  0            999 V2000
   -1.9473   -2.5903    6.4848 C   0  0  0  0  0  0
   -2.2214   -3.2326    5.1096 C   0  0  1  0  0  0
   -3.7132   -3.6389    4.9721 C   0  0  0  0  0  0
   -4.0125   -4.2725    3.7246 O   0  0  0  0  0  0
   -4.4493   -3.5611    2.6598 C   0  0  0  0  0  0
   -4.8555   -2.3974    2.7170 O   0  0  0  0  0  0
   -4.3119   -4.3319    1.5101 N   0  0  0  0  0  0
   -4.4117   -3.8779    0.1868 C   0  0  0  0  0  0
   -4.8643   -4.7631   -0.7874 C   0  0  0  0  0  0
   -4.9256   -4.3599   -2.1191 C   0  0  0  0  0  0
   -4.5273   -3.0731   -2.5071 C   0  0  0  0  0  0
   -4.0496   -2.1710   -1.5312 C   0  0  0  0  0  0
   -3.5212   -0.7754   -1.9079 C   0  0  0  0  0  0
   -2.7156   -0.0752   -0.8893 N   0  0  0  0  0  0
   -3.5118    0.8051   -0.0255 C   0  0  0  0  0  0
   -1.4031   -0.3951   -0.7075 C   0  0  0  0  0  0
   -0.8142   -1.1847   -1.4570 O   0  0  0  0  0  0
   -0.6509    0.1344    0.5529 C   0  0  2  0  0  0
    0.7707    0.1829    0.2608 N   0  0  0  0  0  0
    1.7981    0.7890    0.9984 C   0  0  0  0  0  0
    3.1091    0.6353    0.5551 C   0  0  0  0  0  0
    4.1717    1.2142    1.2425 C   0  0  0  0  0  0
    3.9389    1.9781    2.4184 C   0  0  0  0  0  0
    4.9674    2.6067    3.1824 C   0  0  0  0  0  0
    6.3127    2.5152    2.8208 N   0  0  0  0  0  0
    4.7308    3.3313    4.3002 N   0  0  0  0  0  0
    3.4506    3.4659    4.7168 C   0  0  0  0  0  0
    2.3618    2.9006    4.0574 C   0  0  0  0  0  0
    1.1102    3.0832    4.5408 F   0  0  0  0  0  0
    2.5943    2.1379    2.8801 C   0  0  0  0  0  0
    1.5381    1.5340    2.1518 C   0  0  0  0  0  0
   -0.9812   -0.7288    1.7554 C   0  0  0  0  0  0
   -1.7548   -0.2139    2.7984 C   0  0  0  0  0  0
   -2.1164   -1.0177    3.8766 C   0  0  0  0  0  0
   -1.7229   -2.3614    3.9403 C   0  0  0  0  0  0
   -0.9247   -2.8834    2.9010 C   0  0  0  0  0  0
   -0.4728   -4.3379    2.8768 C   0  0  0  0  0  0
   -0.5558   -2.0612    1.8316 C   0  0  0  0  0  0
   -4.0016   -2.5956   -0.1939 C   0  0  0  0  0  0
   -4.6270   -2.6889   -4.2726 S   0  0  0  0  0  0
   -5.6338   -3.5862   -4.8514 O   0  0  0  0  0  0
   -4.7783   -1.2392   -4.4416 O   0  0  0  0  0  0
   -2.9321   -3.2295   -4.9324 C   0  0  0  0  0  0
   -1.8367   -2.1951   -5.0191 C   0  0  0  0  0  0
   -2.5227   -2.6931   -6.2790 C   0  0  0  0  0  0
   -0.9008   -2.2983    6.5832 H   0  0  0  0  0  0
   -2.1662   -3.2882    7.2937 H   0  0  0  0  0  0
   -2.5574   -1.7023    6.6520 H   0  0  0  0  0  0
   -1.6489   -4.1584    5.1236 H   0  0  0  0  0  0
   -3.9580   -4.3492    5.7622 H   0  0  0  0  0  0
   -4.3606   -2.7759    5.1396 H   0  0  0  0  0  0
   -4.1155   -5.3136    1.6382 H   0  0  0  0  0  0
   -5.1665   -5.7660   -0.5214 H   0  0  0  0  0  0
   -5.2765   -5.0697   -2.8537 H   0  0  0  0  0  0
   -2.9145   -0.8802   -2.8039 H   0  0  0  0  0  0
   -4.3694   -0.1504   -2.1903 H   0  0  0  0  0  0
   -2.9361    1.3825    0.6924 H   0  0  0  0  0  0
   -4.2492    0.2272    0.5320 H   0  0  0  0  0  0
   -4.0556    1.5242   -0.6390 H   0  0  0  0  0  0
   -0.9236    1.1725    0.7389 H   0  0  0  0  0  0
    1.0607   -0.3603   -0.5402 H   0  0  0  0  0  0
    3.3148    0.0595   -0.3361 H   0  0  0  0  0  0
    5.1788    1.0800    0.8760 H   0  0  0  0  0  0
    6.5754    1.9913    1.9986 H   0  0  0  0  0  0
    7.0073    2.9778    3.3897 H   0  0  0  0  0  0
    3.3014    4.0503    5.6131 H   0  0  0  0  0  0
    0.5268    1.6614    2.5086 H   0  0  0  0  0  0
   -2.0942    0.8109    2.7716 H   0  0  0  0  0  0
   -2.7393   -0.5936    4.6500 H   0  0  0  0  0  0
    0.0507   -4.5949    1.9549 H   0  0  0  0  0  0
   -1.3320   -5.0044    2.9594 H   0  0  0  0  0  0
    0.1915   -4.5436    3.7165 H   0  0  0  0  0  0
    0.0416   -2.4681    1.0280 H   0  0  0  0  0  0
   -3.6089   -1.9364    0.5637 H   0  0  0  0  0  0
   -2.7022   -4.2613   -4.6663 H   0  0  0  0  0  0
   -2.0240   -1.1681   -4.7092 H   0  0  0  0  0  0
   -0.8154   -2.5107   -4.8053 H   0  0  0  0  0  0
   -3.2106   -2.0323   -6.8074 H   0  0  0  0  0  0
   -1.9792   -3.3537   -6.9547 H   0  0  0  0  0  0
  1  2  1  0  0  0
  1 46  1  0  0  0
  1 47  1  0  0  0
  1 48  1  0  0  0
  2  3  1  0  0  0
  2 35  1  0  0  0
  2 49  1  0  0  0
  3  4  1  0  0  0
  3 50  1  0  0  0
  3 51  1  0  0  0
  4  5  1  0  0  0
  5  6  2  0  0  0
  5  7  1  0  0  0
  7  8  1  0  0  0
  7 52  1  0  0  0
  8  9  2  0  0  0
  8 39  1  0  0  0
  9 10  1  0  0  0
  9 53  1  0  0  0
 10 11  2  0  0  0
 10 54  1  0  0  0
 11 12  1  0  0  0
 11 40  1  0  0  0
 12 13  1  0  0  0
 12 39  2  0  0  0
 13 14  1  0  0  0
 13 55  1  0  0  0
 13 56  1  0  0  0
 14 15  1  0  0  0
 14 16  1  0  0  0
 15 57  1  0  0  0
 15 58  1  0  0  0
 15 59  1  0  0  0
 16 17  2  0  0  0
 16 18  1  0  0  0
 18 19  1  0  0  0
 18 32  1  0  0  0
 18 60  1  0  0  0
 19 20  1  0  0  0
 19 61  1  0  0  0
 20 21  2  0  0  0
 20 31  1  0  0  0
 21 22  1  0  0  0
 21 62  1  0  0  0
 22 23  2  0  0  0
 22 63  1  0  0  0
 23 24  1  0  0  0
 23 30  1  0  0  0
 24 25  1  0  0  0
 24 26  2  0  0  0
 25 64  1  0  0  0
 25 65  1  0  0  0
 26 27  1  0  0  0
 27 28  2  0  0  0
 27 66  1  0  0  0
 28 29  1  0  0  0
 28 30  1  0  0  0
 30 31  2  0  0  0
 31 67  1  0  0  0
 32 33  2  0  0  0
 32 38  1  0  0  0
 33 34  1  0  0  0
 33 68  1  0  0  0
 34 35  2  0  0  0
 34 69  1  0  0  0
 35 36  1  0  0  0
 36 37  1  0  0  0
 36 38  2  0  0  0
 37 70  1  0  0  0
 37 71  1  0  0  0
 37 72  1  0  0  0
 38 73  1  0  0  0
 39 74  1  0  0  0
 40 41  2  0  0  0
 40 42  2  0  0  0
 40 43  1  0  0  0
 43 44  1  0  0  0
 43 45  1  0  0  0
 43 75  1  0  0  0
 44 45  1  0  0  0
 44 76  1  0  0  0
 44 77  1  0  0  0
 45 78  1  0  0  0
 45 79  1  0  0  0
M  END
> <chembl_id>
CHEMBL3902498

> <chembl_pref_name>
None

> <i_m_ct_stereo_status>
1

> <s_m_source_file>
sdf/inactives_sanitized.sdf

> <i_m_source_file_index>
136

> <i_lp_mmshare_version>
49012

> <i_f3d_flags>
0

> <s_epik_input>
Tz1DKFtOSF0xKU9bQ0gyXVtDQEhdKFtDSDNdKWMoYyhbQ0gzXSlbY0hdMilbY0hdW2NIXWMyW0NASF0oQyg9TylOKFtDSDNdKVtDSDJdYyhbY0hdMyljKFtjSF1bY0hdYzEzKVMoPU8pKD1PKVtDSF00W0NIMl1bQ0gyXTQpW05IXWMoW2NIXVtjSF01KVtjSF1jKGM1NiljKEYpW2NIXW5jNltOSDJd

> <s_epik_cmdline>
J2VwaWtfcHl0aG9uJywgJy1waHQnLCAnMC41JywgJy1waCcsICc3LjUnLCAnLW50JywgJy1tYScsICcyMDAnLCAnLWltYWUnLCAnPGluZmlsZS5tYWU+JywgJy1vbWFlJywgJzxvdXRmaWxlLm1hZT4n

> <r_epik_Ionization_Penalty>
  0.0876

> <r_epik_Ionization_Penalty_Charging>
  0.0000

> <r_epik_Ionization_Penalty_Neutral>
  0.0876

> <r_epik_State_Penalty>
  0.0781

> <r_epik_Charging_Adjusted_Penalty>
0.0780622126310374

> <i_epik_Tot_Q>
0

> <i_epik_Tot_abs_Q>
0

> <s_epik_Chemistry_Notes>
This compound has an ester and may undergo hydrolysis at high or low pH.

> <s_lp_Force_Field>
OPLS3e

> <r_lp_Energy>
76.161037

> <b_lp_Chiralities_Consistent>
1

> <s_lp_Variant>
sdf/inactives_sanitized.sdf:136-1

$$$$
sdf/inactives_sanitized.sdf:137
                    3D
 Schrodinger Suite 2020-1.
 66 70  0  0  1  0            999 V2000
   -2.4111    0.7764    0.4110 C   0  0  1  0  0  0
   -2.8677    0.2512   -0.9795 C   0  0  0  0  0  0
   -4.3691   -0.1048   -0.9177 C   0  0  0  0  0  0
   -4.6551   -1.1816    0.1560 C   0  0  1  0  0  0
   -4.1536   -0.6697    1.5317 C   0  0  0  0  0  0
   -2.6506   -0.3168    1.4909 C   0  0  0  0  0  0
   -0.9048    1.1136    0.3545 C   0  0  0  0  0  0
   -0.5296    2.2629    0.5897 O   0  0  0  0  0  0
   -0.0554    0.1119    0.0493 N   0  0  0  0  0  0
   -6.1492   -1.5744    0.1537 C   0  0  0  0  0  0
   -6.4246   -2.6839    1.1748 N   0  3  0  0  0  0
    1.4104    0.1956   -0.0089 C   0  0  1  0  0  0
    2.0484   -1.1939   -0.2515 C   0  0  0  0  0  0
    1.5589   -2.2808    0.7009 C   0  0  0  0  0  0
    0.5170   -3.1306    0.3175 C   0  0  0  0  0  0
    0.0606   -4.1105    1.1951 C   0  0  0  0  0  0
    0.6489   -4.2391    2.4516 C   0  0  0  0  0  0
    1.6891   -3.3968    2.8389 C   0  0  0  0  0  0
    2.1447   -2.4153    1.9625 C   0  0  0  0  0  0
    1.8961    1.1976   -1.0518 C   0  0  0  0  0  0
    1.4308    1.3110   -2.2764 N   0  0  0  0  0  0
    2.1269    2.2830   -2.8583 C   0  0  0  0  0  0
    3.0902    2.7826   -1.9771 C   0  0  0  0  0  0
    2.9258    2.0685   -0.8241 N   0  0  0  0  0  0
    4.3043    3.9926   -2.1195 Cl  0  0  0  0  0  0
    0.7069    1.5273   -7.6344 N   0  0  0  0  0  0
    0.5928    2.3576   -8.6878 N   0  0  0  0  0  0
    0.9429    3.5474   -8.2732 C   0  0  0  0  0  0
    1.3084    3.5352   -6.8911 C   0  0  0  0  0  0
    1.7467    4.4721   -5.9439 C   0  0  0  0  0  0
    2.0037    4.0366   -4.6446 C   0  0  0  0  0  0
    1.8402    2.6983   -4.2687 C   0  0  0  0  0  0
    1.3996    1.7441   -5.1985 C   0  0  0  0  0  0
    1.1415    2.1849   -6.5000 C   0  0  0  0  0  0
    0.9491    4.6488   -9.0806 N   0  0  0  0  0  0
   -2.9240    1.7057    0.6688 H   0  0  0  0  0  0
   -2.7609    1.0188   -1.7485 H   0  0  0  0  0  0
   -2.3523   -0.6691   -1.2633 H   0  0  0  0  0  0
   -4.9663    0.7881   -0.7234 H   0  0  0  0  0  0
   -4.7069   -0.4576   -1.8934 H   0  0  0  0  0  0
   -4.0637   -2.0608   -0.1089 H   0  0  0  0  0  0
   -4.7389    0.1987    1.8399 H   0  0  0  0  0  0
   -4.3369   -1.4148    2.3067 H   0  0  0  0  0  0
   -2.3890    0.0457    2.4868 H   0  0  0  0  0  0
   -2.1298   -1.2485    1.2581 H   0  0  0  0  0  0
   -0.4290   -0.8250    0.0866 H   0  0  0  0  0  0
   -6.4742   -2.0014   -0.7960 H   0  0  0  0  0  0
   -6.8119   -0.7572    0.4421 H   0  0  0  0  0  0
   -7.4025   -2.9364    1.1592 H   0  0  0  0  0  0
   -6.1851   -2.3682    2.1039 H   0  0  0  0  0  0
    1.7390    0.5207    0.9813 H   0  0  0  0  0  0
    1.8650   -1.5176   -1.2780 H   0  0  0  0  0  0
    3.1344   -1.1236   -0.1687 H   0  0  0  0  0  0
    0.0576   -3.0289   -0.6552 H   0  0  0  0  0  0
   -0.7450   -4.7677    0.9028 H   0  0  0  0  0  0
    0.2961   -4.9999    3.1325 H   0  0  0  0  0  0
    2.1394   -3.5040    3.8149 H   0  0  0  0  0  0
    2.9485   -1.7597    2.2652 H   0  0  0  0  0  0
    3.4562    2.1692    0.0296 H   0  0  0  0  0  0
    0.4825    0.5476   -7.7320 H   0  0  0  0  0  0
    1.8794    5.5105   -6.2093 H   0  0  0  0  0  0
    2.3261    4.7663   -3.9172 H   0  0  0  0  0  0
    1.2668    0.7083   -4.9209 H   0  0  0  0  0  0
    1.2991    5.5398   -8.7587 H   0  0  0  0  0  0
    0.6694    4.5933  -10.0496 H   0  0  0  0  0  0
   -5.8735   -3.5019    0.9568 H   0  0  0  0  0  0
  1  2  1  0  0  0
  1  6  1  0  0  0
  1  7  1  0  0  0
  1 36  1  0  0  0
  2  3  1  0  0  0
  2 37  1  0  0  0
  2 38  1  0  0  0
  3  4  1  0  0  0
  3 39  1  0  0  0
  3 40  1  0  0  0
  4  5  1  0  0  0
  4 10  1  0  0  0
  4 41  1  0  0  0
  5  6  1  0  0  0
  5 42  1  0  0  0
  5 43  1  0  0  0
  6 44  1  0  0  0
  6 45  1  0  0  0
  7  8  2  0  0  0
  7  9  1  0  0  0
  9 12  1  0  0  0
  9 46  1  0  0  0
 10 11  1  0  0  0
 10 47  1  0  0  0
 10 48  1  0  0  0
 11 49  1  0  0  0
 11 50  1  0  0  0
 11 66  1  0  0  0
 12 13  1  0  0  0
 12 20  1  0  0  0
 12 51  1  0  0  0
 13 14  1  0  0  0
 13 52  1  0  0  0
 13 53  1  0  0  0
 14 15  2  0  0  0
 14 19  1  0  0  0
 15 16  1  0  0  0
 15 54  1  0  0  0
 16 17  2  0  0  0
 16 55  1  0  0  0
 17 18  1  0  0  0
 17 56  1  0  0  0
 18 19  2  0  0  0
 18 57  1  0  0  0
 19 58  1  0  0  0
 20 21  2  0  0  0
 20 24  1  0  0  0
 21 22  1  0  0  0
 22 23  2  0  0  0
 22 32  1  0  0  0
 23 24  1  0  0  0
 23 25  1  0  0  0
 24 59  1  0  0  0
 26 27  1  0  0  0
 26 34  1  0  0  0
 26 60  1  0  0  0
 27 28  2  0  0  0
 28 29  1  0  0  0
 28 35  1  0  0  0
 29 30  2  0  0  0
 29 34  1  0  0  0
 30 31  1  0  0  0
 30 61  1  0  0  0
 31 32  2  0  0  0
 31 62  1  0  0  0
 32 33  1  0  0  0
 33 34  2  0  0  0
 33 63  1  0  0  0
 35 64  1  0  0  0
 35 65  1  0  0  0
M  CHG  1  11   1
M  END
> <chembl_id>
CHEMBL3355683

> <chembl_pref_name>
None

> <i_m_ct_stereo_status>
1

> <s_m_source_file>
sdf/inactives_sanitized.sdf

> <i_m_source_file_index>
137

> <i_lp_mmshare_version>
49012

> <i_f3d_flags>
0

> <s_epik_input>
W0NIMl0xW0NIMl1bQ0BASF0oW0NIMl1bTkgyXSlbQ0gyXVtDSDJdW0NAQEhdMUMoPU8pW05IXVtDQEBIXShbQ0gyXWMyW2NIXVtjSF1bY0hdW2NIXVtjSF0yKWMzbmMoYyhDbClbbkhdMyktYyhbY0hdW2NIXTQpW2NIXWMoYzQ1KVtuSF1uYzVbTkgyXQ==

> <s_epik_cmdline>
J2VwaWtfcHl0aG9uJywgJy1waHQnLCAnMC41JywgJy1waCcsICc3LjUnLCAnLW50JywgJy1tYScsICcyMDAnLCAnLWltYWUnLCAnPGluZmlsZS5tYWU+JywgJy1vbWFlJywgJzxvdXRmaWxlLm1hZT4n

> <r_lp_tautomer_probability>
1

> <r_epik_Ionization_Penalty>
  0.0048

> <r_epik_Ionization_Penalty_Charging>
  0.0044

> <r_epik_Ionization_Penalty_Neutral>
  0.0005

> <r_epik_State_Penalty>
 -0.0000

> <r_epik_Charging_Adjusted_Penalty>
0.00437365433758375

> <i_epik_Tot_Q>
1

> <i_epik_Tot_abs_Q>
1

> <s_lp_Force_Field>
OPLS3e

> <r_lp_Energy>
47.133698

> <b_lp_Chiralities_Consistent>
1

> <s_lp_Variant>
sdf/inactives_sanitized.sdf:137-1

$$$$
sdf/inactives_sanitized.sdf:138
                    3D
 Schrodinger Suite 2020-1.
 78 82  0  0  1  0            999 V2000
   -3.4999    7.5071   -2.4388 C   0  0  0  0  0  0
   -3.4175    8.1637   -1.2145 C   0  0  0  0  0  0
   -2.8696    7.5122   -0.1138 C   0  0  0  0  0  0
   -2.3955    6.2074   -0.2415 C   0  0  0  0  0  0
   -2.4585    5.5255   -1.4679 C   0  0  0  0  0  0
   -3.0387    6.1912   -2.5741 C   0  0  0  0  0  0
   -2.7687    8.3235    1.4064 Cl  0  0  0  0  0  0
   -3.1888    5.5835   -3.8401 N   0  0  0  0  0  0
   -2.8451    6.0745   -5.0783 C   0  0  0  0  0  0
   -3.1880    5.2388   -6.0253 N   0  0  0  0  0  0
   -3.7930    4.1738   -5.3650 N   0  0  0  0  0  0
   -3.8027    4.4017   -4.0012 N   0  0  0  0  0  0
   -1.9056    4.1504   -1.5784 C   0  0  0  0  0  0
   -1.6817    3.2918   -0.5587 C   0  0  0  0  0  0
   -1.1161    1.9762   -0.7566 C   0  0  0  0  0  0
   -0.9725    1.2892    0.3901 N   0  0  0  0  0  0
   -0.7947    1.5302   -1.8610 O   0  0  0  0  0  0
   -0.4230   -0.0644    0.5113 C   0  0  2  0  0  0
   -0.8946   -0.7103    1.8348 C   0  0  0  0  0  0
    1.1289   -0.0658    0.3798 C   0  0  0  0  0  0
    1.7203   -1.4739    0.3615 C   0  0  0  0  0  0
   -1.1508   -2.0341    1.7582 N   0  0  0  0  0  0
   -0.9369   -0.0323    2.8650 O   0  0  0  0  0  0
    2.3185   -1.9941    1.5109 C   0  0  0  0  0  0
    2.7998   -3.2997    1.5183 C   0  0  0  0  0  0
    2.6968   -4.0918    0.3640 C   0  0  0  0  0  0
    2.1018   -3.5640   -0.7844 C   0  0  0  0  0  0
    1.6201   -2.2580   -0.7888 C   0  0  0  0  0  0
   -1.4511   -2.9070    2.8136 C   0  0  0  0  0  0
   -0.9552   -4.2063    2.7158 C   0  0  0  0  0  0
   -1.2217   -5.1319    3.7204 C   0  0  0  0  0  0
   -1.9983   -4.7772    4.8345 C   0  0  0  0  0  0
   -2.5042   -3.4700    4.9140 C   0  0  0  0  0  0
   -2.2380   -2.5407    3.9119 C   0  0  0  0  0  0
   -2.2853   -5.7780    5.9174 C   0  0  0  0  0  0
   -2.9767   -5.4072    6.8938 O   0  0  0  0  0  0
   -1.8197   -6.9340    5.7897 O   0  5  0  0  0  0
    3.1170   -5.4332    0.2846 N   0  0  0  0  0  0
    3.9744   -6.1154    1.0831 C   0  0  0  0  0  0
    4.1246   -7.4363    0.7676 N   0  0  0  0  0  0
    4.6417   -5.5646    1.9637 O   0  0  0  0  0  0
    3.0004   -8.1998    0.1642 C   0  0  0  0  0  0
    3.5495   -9.4474   -0.5651 C   0  0  0  0  0  0
    4.4222  -10.2406    0.2976 N   0  0  0  0  0  0
    5.5727   -9.4450    0.7198 C   0  0  0  0  0  0
    5.1390   -8.2031    1.5297 C   0  0  0  0  0  0
    4.8713  -11.4382   -0.4063 C   0  0  0  0  0  0
   -3.9400    8.0247   -3.2795 H   0  0  0  0  0  0
   -3.7830    9.1760   -1.1216 H   0  0  0  0  0  0
   -1.9564    5.7396    0.6269 H   0  0  0  0  0  0
   -2.3555    7.0314   -5.1839 H   0  0  0  0  0  0
   -1.6425    3.8372   -2.5796 H   0  0  0  0  0  0
   -1.9254    3.5623    0.4596 H   0  0  0  0  0  0
   -1.2676    1.7135    1.2576 H   0  0  0  0  0  0
   -0.8245   -0.6553   -0.3161 H   0  0  0  0  0  0
    1.4289    0.4332   -0.5432 H   0  0  0  0  0  0
    1.5801    0.5195    1.1838 H   0  0  0  0  0  0
   -1.0051   -2.4777    0.8633 H   0  0  0  0  0  0
    2.3845   -1.3989    2.4103 H   0  0  0  0  0  0
    3.2195   -3.6781    2.4371 H   0  0  0  0  0  0
    2.0045   -4.1633   -1.6786 H   0  0  0  0  0  0
    1.1520   -1.8631   -1.6791 H   0  0  0  0  0  0
   -0.3533   -4.5042    1.8686 H   0  0  0  0  0  0
   -0.8158   -6.1285    3.6199 H   0  0  0  0  0  0
   -3.1124   -3.1599    5.7519 H   0  0  0  0  0  0
   -2.6546   -1.5479    3.9960 H   0  0  0  0  0  0
    2.7093   -5.9522   -0.4790 H   0  0  0  0  0  0
    2.3422   -8.5688    0.9521 H   0  0  0  0  0  0
    2.4461   -7.6352   -0.5862 H   0  0  0  0  0  0
    2.7202  -10.0602   -0.9221 H   0  0  0  0  0  0
    4.1276   -9.1302   -1.4359 H   0  0  0  0  0  0
    6.2525  -10.0549    1.3169 H   0  0  0  0  0  0
    6.1130   -9.1231   -0.1733 H   0  0  0  0  0  0
    6.0440   -7.6236    1.7203 H   0  0  0  0  0  0
    4.7019   -8.5738    2.4581 H   0  0  0  0  0  0
    5.5037  -12.0491    0.2395 H   0  0  0  0  0  0
    5.4411  -11.1904   -1.3037 H   0  0  0  0  0  0
    4.0199  -12.0521   -0.7031 H   0  0  0  0  0  0
  1  2  2  0  0  0
  1  6  1  0  0  0
  1 48  1  0  0  0
  2  3  1  0  0  0
  2 49  1  0  0  0
  3  4  2  0  0  0
  3  7  1  0  0  0
  4  5  1  0  0  0
  4 50  1  0  0  0
  5  6  2  0  0  0
  5 13  1  0  0  0
  6  8  1  0  0  0
  8  9  1  0  0  0
  8 12  1  0  0  0
  9 10  2  0  0  0
  9 51  1  0  0  0
 10 11  1  0  0  0
 11 12  2  0  0  0
 13 14  2  0  0  0
 13 52  1  0  0  0
 14 15  1  0  0  0
 14 53  1  0  0  0
 15 16  1  0  0  0
 15 17  2  0  0  0
 16 18  1  0  0  0
 16 54  1  0  0  0
 18 19  1  0  0  0
 18 20  1  0  0  0
 18 55  1  0  0  0
 19 22  1  0  0  0
 19 23  2  0  0  0
 20 21  1  0  0  0
 20 56  1  0  0  0
 20 57  1  0  0  0
 21 24  2  0  0  0
 21 28  1  0  0  0
 22 29  1  0  0  0
 22 58  1  0  0  0
 24 25  1  0  0  0
 24 59  1  0  0  0
 25 26  2  0  0  0
 25 60  1  0  0  0
 26 27  1  0  0  0
 26 38  1  0  0  0
 27 28  2  0  0  0
 27 61  1  0  0  0
 28 62  1  0  0  0
 29 30  2  0  0  0
 29 34  1  0  0  0
 30 31  1  0  0  0
 30 63  1  0  0  0
 31 32  2  0  0  0
 31 64  1  0  0  0
 32 33  1  0  0  0
 32 35  1  0  0  0
 33 34  2  0  0  0
 33 65  1  0  0  0
 34 66  1  0  0  0
 35 36  2  0  0  0
 35 37  1  0  0  0
 38 39  1  0  0  0
 38 67  1  0  0  0
 39 40  1  0  0  0
 39 41  2  0  0  0
 40 42  1  0  0  0
 40 46  1  0  0  0
 42 43  1  0  0  0
 42 68  1  0  0  0
 42 69  1  0  0  0
 43 44  1  0  0  0
 43 70  1  0  0  0
 43 71  1  0  0  0
 44 45  1  0  0  0
 44 47  1  0  0  0
 45 46  1  0  0  0
 45 72  1  0  0  0
 45 73  1  0  0  0
 46 74  1  0  0  0
 46 75  1  0  0  0
 47 76  1  0  0  0
 47 77  1  0  0  0
 47 78  1  0  0  0
M  CHG  1  37  -1
M  END
> <chembl_id>
CHEMBL3752047

> <chembl_pref_name>
None

> <i_m_ct_stereo_status>
1

> <s_m_source_file>
sdf/inactives_sanitized.sdf

> <i_m_source_file_index>
138

> <i_lp_mmshare_version>
49012

> <i_f3d_flags>
0

> <s_epik_input>
bjFubltjSF1uMS1jKFtjSF1bY0hdYzJDbCljKFtjSF0yKS9bQ0hdPVtDSF0vQyg9TylbTkhdW0NASF0oQyg9TylbTkhdYzNbY0hdW2NIXWMoW2NIXVtjSF0zKUMoPU8pW09IXSlbQ0gyXWM0W2NIXVtjSF1jKFtjSF1bY0hdNClbTkhdQyg9TylONVtDSDJdW0NIMl1OKFtDSDNdKVtDSDJdW0NIMl01

> <s_epik_cmdline>
J2VwaWtfcHl0aG9uJywgJy1waHQnLCAnMC41JywgJy1waCcsICc3LjUnLCAnLW50JywgJy1tYScsICcyMDAnLCAnLWltYWUnLCAnPGluZmlsZS5tYWU+JywgJy1vbWFlJywgJzxvdXRmaWxlLm1hZT4n

> <r_lp_tautomer_probability>
1

> <r_epik_Ionization_Penalty>
  0.4056

> <r_epik_Ionization_Penalty_Charging>
  0.0003

> <r_epik_Ionization_Penalty_Neutral>
  0.4053

> <r_epik_State_Penalty>
  0.4049

> <r_epik_Charging_Adjusted_Penalty>
0.405204189613126

> <i_epik_Tot_Q>
-1

> <i_epik_Tot_abs_Q>
1

> <s_lp_Force_Field>
OPLS3e

> <r_lp_Energy>
88.389826

> <b_lp_Chiralities_Consistent>
1

> <s_lp_Variant>
sdf/inactives_sanitized.sdf:138-1

$$$$
sdf/inactives_sanitized.sdf:138
                    3D
 Schrodinger Suite 2020-1.
 79 83  0  0  1  0            999 V2000
   -2.6778    7.8889   -1.3945 C   0  0  0  0  0  0
   -3.5413    8.0683   -0.3172 C   0  0  0  0  0  0
   -3.8904    6.9832    0.4814 C   0  0  0  0  0  0
   -3.3828    5.7167    0.1956 C   0  0  0  0  0  0
   -2.5220    5.5097   -0.8932 C   0  0  0  0  0  0
   -2.1548    6.6209   -1.6863 C   0  0  0  0  0  0
   -4.9569    7.2045    1.8204 Cl  0  0  0  0  0  0
   -1.2454    6.5088   -2.7645 N   0  0  0  0  0  0
   -0.0081    5.9054   -2.8070 C   0  0  0  0  0  0
    0.5297    6.0230   -3.9936 N   0  0  0  0  0  0
   -0.3969    6.7410   -4.7418 N   0  0  0  0  0  0
   -1.5013    7.0451   -3.9676 N   0  0  0  0  0  0
   -2.0290    4.1441   -1.1866 C   0  0  0  0  0  0
   -1.8203    3.1646   -0.2811 C   0  0  0  0  0  0
   -1.3280    1.8617   -0.6605 C   0  0  0  0  0  0
   -0.8448    1.1611    0.3806 N   0  0  0  0  0  0
   -1.3126    1.4545   -1.8248 O   0  0  0  0  0  0
   -0.1827   -0.1480    0.3007 C   0  0  2  0  0  0
   -0.5940   -1.0100    1.5113 C   0  0  0  0  0  0
    1.3668   -0.0326    0.2143 C   0  0  0  0  0  0
    1.8326    0.8099   -0.9705 C   0  0  0  0  0  0
   -0.9325   -2.2865    1.2276 N   0  0  0  0  0  0
   -0.5473   -0.5195    2.6429 O   0  0  0  0  0  0
    1.8630    0.2557   -2.2510 C   0  0  0  0  0  0
    2.2368    1.0388   -3.3395 C   0  0  0  0  0  0
    2.5911    2.3781   -3.1581 C   0  0  0  0  0  0
    2.5617    2.9325   -1.8684 C   0  0  0  0  0  0
    2.1907    2.1465   -0.7813 C   0  0  0  0  0  0
   -1.3280   -3.2822    2.1350 C   0  0  0  0  0  0
   -0.9635   -4.5946    1.8371 C   0  0  0  0  0  0
   -1.3419   -5.6335    2.6830 C   0  0  0  0  0  0
   -2.1022   -5.3802    3.8350 C   0  0  0  0  0  0
   -2.4762   -4.0570    4.1166 C   0  0  0  0  0  0
   -2.0977   -3.0153    3.2742 C   0  0  0  0  0  0
   -2.5123   -6.5029    4.7448 C   0  0  0  0  0  0
   -3.2057   -6.2233    5.7499 O   0  0  0  0  0  0
   -2.1413   -7.6631    4.4527 O   0  5  0  0  0  0
    2.9259    3.0880   -4.3280 N   0  0  0  0  0  0
    3.5071    4.3035   -4.4719 C   0  0  0  0  0  0
    3.6151    4.7450   -5.7594 N   0  0  0  0  0  0
    3.9301    4.9627   -3.5197 O   0  0  0  0  0  0
    2.9462    4.1226   -6.9268 C   0  0  0  0  0  0
    1.8358    5.0800   -7.4137 C   0  0  0  0  0  0
    2.4455    6.4584   -7.7460 N   0  3  0  0  0  0
    3.1778    7.0314   -6.5146 C   0  0  0  0  0  0
    4.2671    6.0382   -6.0549 C   0  0  0  0  0  0
    1.3460    7.4315   -8.2141 C   0  0  0  0  0  0
   -2.4063    8.7468   -1.9933 H   0  0  0  0  0  0
   -3.9336    9.0513   -0.1010 H   0  0  0  0  0  0
   -3.6827    4.8877    0.8202 H   0  0  0  0  0  0
    0.4102    5.4183   -1.9381 H   0  0  0  0  0  0
   -1.8432    3.9372   -2.2322 H   0  0  0  0  0  0
   -1.9920    3.3342    0.7731 H   0  0  0  0  0  0
   -0.9507    1.5336    1.3131 H   0  0  0  0  0  0
   -0.5186   -0.6578   -0.6059 H   0  0  0  0  0  0
    1.7677    0.3981    1.1346 H   0  0  0  0  0  0
    1.8169   -1.0238    0.1313 H   0  0  0  0  0  0
   -0.8481   -2.5867    0.2674 H   0  0  0  0  0  0
    1.5793   -0.7752   -2.4063 H   0  0  0  0  0  0
    2.2437    0.5965   -4.3258 H   0  0  0  0  0  0
    2.7983    3.9672   -1.6794 H   0  0  0  0  0  0
    2.1572    2.5863    0.2049 H   0  0  0  0  0  0
   -0.3812   -4.8177    0.9545 H   0  0  0  0  0  0
   -1.0379   -6.6390    2.4282 H   0  0  0  0  0  0
   -3.0689   -3.8209    4.9890 H   0  0  0  0  0  0
   -2.4189   -2.0119    3.5111 H   0  0  0  0  0  0
    2.6875    2.6068   -5.1825 H   0  0  0  0  0  0
    3.6802    3.9767   -7.7202 H   0  0  0  0  0  0
    2.5383    3.1333   -6.7200 H   0  0  0  0  0  0
    1.3881    4.7197   -8.3408 H   0  0  0  0  0  0
    1.0435    5.2174   -6.6765 H   0  0  0  0  0  0
    3.6202    7.9743   -6.8392 H   0  0  0  0  0  0
    2.4413    7.2416   -5.7370 H   0  0  0  0  0  0
    4.8272    6.4358   -5.2072 H   0  0  0  0  0  0
    4.9994    5.8963   -6.8506 H   0  0  0  0  0  0
    0.6290    7.5531   -7.4001 H   0  0  0  0  0  0
    0.8806    6.9919   -9.0971 H   0  0  0  0  0  0
    1.8352    8.3744   -8.4624 H   0  0  0  0  0  0
    3.1212    6.3359   -8.4874 H   0  0  0  0  0  0
  1  2  2  0  0  0
  1  6  1  0  0  0
  1 48  1  0  0  0
  2  3  1  0  0  0
  2 49  1  0  0  0
  3  4  2  0  0  0
  3  7  1  0  0  0
  4  5  1  0  0  0
  4 50  1  0  0  0
  5  6  2  0  0  0
  5 13  1  0  0  0
  6  8  1  0  0  0
  8  9  1  0  0  0
  8 12  1  0  0  0
  9 10  2  0  0  0
  9 51  1  0  0  0
 10 11  1  0  0  0
 11 12  2  0  0  0
 13 14  2  0  0  0
 13 52  1  0  0  0
 14 15  1  0  0  0
 14 53  1  0  0  0
 15 16  1  0  0  0
 15 17  2  0  0  0
 16 18  1  0  0  0
 16 54  1  0  0  0
 18 19  1  0  0  0
 18 20  1  0  0  0
 18 55  1  0  0  0
 19 22  1  0  0  0
 19 23  2  0  0  0
 20 21  1  0  0  0
 20 56  1  0  0  0
 20 57  1  0  0  0
 21 24  2  0  0  0
 21 28  1  0  0  0
 22 29  1  0  0  0
 22 58  1  0  0  0
 24 25  1  0  0  0
 24 59  1  0  0  0
 25 26  2  0  0  0
 25 60  1  0  0  0
 26 27  1  0  0  0
 26 38  1  0  0  0
 27 28  2  0  0  0
 27 61  1  0  0  0
 28 62  1  0  0  0
 29 30  2  0  0  0
 29 34  1  0  0  0
 30 31  1  0  0  0
 30 63  1  0  0  0
 31 32  2  0  0  0
 31 64  1  0  0  0
 32 33  1  0  0  0
 32 35  1  0  0  0
 33 34  2  0  0  0
 33 65  1  0  0  0
 34 66  1  0  0  0
 35 36  2  0  0  0
 35 37  1  0  0  0
 38 39  1  0  0  0
 38 67  1  0  0  0
 39 40  1  0  0  0
 39 41  2  0  0  0
 40 42  1  0  0  0
 40 46  1  0  0  0
 42 43  1  0  0  0
 42 68  1  0  0  0
 42 69  1  0  0  0
 43 44  1  0  0  0
 43 70  1  0  0  0
 43 71  1  0  0  0
 44 45  1  0  0  0
 44 47  1  0  0  0
 44 79  1  0  0  0
 45 46  1  0  0  0
 45 72  1  0  0  0
 45 73  1  0  0  0
 46 74  1  0  0  0
 46 75  1  0  0  0
 47 76  1  0  0  0
 47 77  1  0  0  0
 47 78  1  0  0  0
M  CHG  2  37  -1  44   1
M  END
> <chembl_id>
CHEMBL3752047

> <chembl_pref_name>
None

> <i_m_ct_stereo_status>
1

> <s_m_source_file>
sdf/inactives_sanitized.sdf

> <i_m_source_file_index>
138

> <i_lp_mmshare_version>
49012

> <i_f3d_flags>
0

> <s_epik_input>
bjFubltjSF1uMS1jKFtjSF1bY0hdYzJDbCljKFtjSF0yKS9bQ0hdPVtDSF0vQyg9TylbTkhdW0NASF0oQyg9TylbTkhdYzNbY0hdW2NIXWMoW2NIXVtjSF0zKUMoPU8pW09IXSlbQ0gyXWM0W2NIXVtjSF1jKFtjSF1bY0hdNClbTkhdQyg9TylONVtDSDJdW0NIMl1OKFtDSDNdKVtDSDJdW0NIMl01

> <s_epik_cmdline>
J2VwaWtfcHl0aG9uJywgJy1waHQnLCAnMC41JywgJy1waCcsICc3LjUnLCAnLW50JywgJy1tYScsICcyMDAnLCAnLWltYWUnLCAnPGluZmlsZS5tYWU+JywgJy1vbWFlJywgJzxvdXRmaWxlLm1hZT4n

> <r_lp_tautomer_probability>
1

> <r_epik_Ionization_Penalty>
  0.4165

> <r_epik_Ionization_Penalty_Charging>
  0.4165

> <r_epik_Ionization_Penalty_Neutral>
  0.0000

> <r_epik_State_Penalty>
  0.4165

> <r_epik_Charging_Adjusted_Penalty>
0.833012259458412

> <i_epik_Tot_Q>
0

> <i_epik_Tot_abs_Q>
2

> <s_lp_Force_Field>
OPLS3e

> <r_lp_Energy>
76.914113

> <b_lp_Chiralities_Consistent>
1

> <s_lp_Variant>
sdf/inactives_sanitized.sdf:138-2

$$$$
sdf/inactives_sanitized.sdf:139
                    3D
 Schrodinger Suite 2020-1.
 47 50  0  0  1  0            999 V2000
   -1.6848    1.8486   -0.7518 N   0  0  0  0  0  0
   -0.6972    3.6618   -0.0059 C   0  0  0  0  0  0
   -0.5481    5.0242    0.2803 C   0  0  0  0  0  0
   -2.9270    4.0630   -0.9718 C   0  0  0  0  0  0
   -2.7580    5.4231   -0.6785 C   0  0  0  0  0  0
   -1.5851    5.9003   -0.0610 C   0  0  0  0  0  0
   -1.8825    3.2040   -0.6262 C   0  0  0  0  0  0
   -0.4449    1.5617   -0.2290 C   0  0  0  0  0  0
    0.1703    2.6272    0.2290 N   0  0  0  0  0  0
    0.0996    0.1423   -0.2125 C   0  0  0  0  0  0
    1.5276    0.0146    0.3639 C   0  0  0  0  0  0
    2.0185   -1.3620    0.4063 N   0  0  0  0  0  0
    2.4708   -2.0575   -0.6538 C   0  0  0  0  0  0
    2.8997   -3.4794   -0.3800 C   0  0  0  0  0  0
    2.4960   -1.6069   -1.8008 O   0  0  0  0  0  0
    2.4679   -4.4819   -1.2593 C   0  0  0  0  0  0
    2.8414   -5.8110   -1.0750 C   0  0  0  0  0  0
    3.6751   -6.1707   -0.0093 C   0  0  0  0  0  0
    4.1296   -5.1726    0.8604 C   0  0  0  0  0  0
    3.7600   -3.8372    0.6821 C   0  0  0  0  0  0
   -1.4120    7.3808    0.2544 C   0  0  0  0  0  0
   -3.8840    6.3795   -1.0514 C   0  0  0  0  0  0
    4.4320   -2.6815    1.7879 Cl  0  0  0  0  0  0
    4.0653   -7.5183    0.1884 N   0  0  0  0  0  0
    5.1722   -8.0081    0.8454 C   0  0  0  0  0  0
    5.0691   -9.3855    0.7468 C   0  0  0  0  0  0
    3.9810   -9.7158    0.0804 N   0  0  0  0  0  0
    3.3359   -8.5463   -0.2812 N   0  0  0  0  0  0
   -2.2982    1.1511   -1.1476 H   0  0  0  0  0  0
    0.3520    5.3884    0.7542 H   0  0  0  0  0  0
   -3.8256    3.6952   -1.4453 H   0  0  0  0  0  0
   -0.5723   -0.4958    0.3630 H   0  0  0  0  0  0
    0.0911   -0.2518   -1.2296 H   0  0  0  0  0  0
    2.2236    0.6420   -0.1974 H   0  0  0  0  0  0
    1.5437    0.3991    1.3847 H   0  0  0  0  0  0
    2.0387   -1.8028    1.3144 H   0  0  0  0  0  0
    1.8262   -4.2394   -2.0951 H   0  0  0  0  0  0
    2.4819   -6.5535   -1.7731 H   0  0  0  0  0  0
    4.7793   -5.4241    1.6860 H   0  0  0  0  0  0
   -2.2223    7.7295    0.8952 H   0  0  0  0  0  0
   -1.4405    7.9701   -0.6624 H   0  0  0  0  0  0
   -0.4701    7.5904    0.7631 H   0  0  0  0  0  0
   -4.2856    6.8599   -0.1587 H   0  0  0  0  0  0
   -4.7040    5.8767   -1.5663 H   0  0  0  0  0  0
   -3.5121    7.1658   -1.7090 H   0  0  0  0  0  0
    5.9072   -7.3601    1.2993 H   0  0  0  0  0  0
    5.7561  -10.1200    1.1409 H   0  0  0  0  0  0
  1  7  1  0  0  0
  1  8  1  0  0  0
  1 29  1  0  0  0
  2  3  2  0  0  0
  2  7  1  0  0  0
  2  9  1  0  0  0
  3  6  1  0  0  0
  3 30  1  0  0  0
  4  7  2  0  0  0
  4  5  1  0  0  0
  4 31  1  0  0  0
  5  6  2  0  0  0
  5 22  1  0  0  0
  6 21  1  0  0  0
  8  9  2  0  0  0
  8 10  1  0  0  0
 10 11  1  0  0  0
 10 32  1  0  0  0
 10 33  1  0  0  0
 11 12  1  0  0  0
 11 34  1  0  0  0
 11 35  1  0  0  0
 12 13  1  0  0  0
 12 36  1  0  0  0
 13 14  1  0  0  0
 13 15  2  0  0  0
 14 16  2  0  0  0
 14 20  1  0  0  0
 16 17  1  0  0  0
 16 37  1  0  0  0
 17 18  2  0  0  0
 17 38  1  0  0  0
 18 19  1  0  0  0
 18 24  1  0  0  0
 19 20  2  0  0  0
 19 39  1  0  0  0
 20 23  1  0  0  0
 21 40  1  0  0  0
 21 41  1  0  0  0
 21 42  1  0  0  0
 22 43  1  0  0  0
 22 44  1  0  0  0
 22 45  1  0  0  0
 24 25  1  0  0  0
 24 28  1  0  0  0
 25 26  2  0  0  0
 25 46  1  0  0  0
 26 27  1  0  0  0
 26 47  1  0  0  0
 27 28  2  0  0  0
M  END
> <chembl_id>
CHEMBL3423042

> <chembl_pref_name>
None

> <s_m_source_file>
sdf/inactives_sanitized.sdf

> <i_m_source_file_index>
139

> <i_lp_mmshare_version>
49012

> <i_m_ct_stereo_status>
1

> <i_f3d_flags>
0

> <s_epik_input>
W2NIXTFjKFtDSDNdKWMoW0NIM10pW2NIXWMoYzEyKVtuSF1jKG4yKVtDSDJdW0NIMl1bTkhdQyg9TyljM1tjSF1bY0hdYyhbY0hdYzNDbCktbjRbY0hdW2NIXW5uNA==

> <s_epik_cmdline>
J2VwaWtfcHl0aG9uJywgJy1waHQnLCAnMC41JywgJy1waCcsICc3LjUnLCAnLW50JywgJy1tYScsICcyMDAnLCAnLWltYWUnLCAnPGluZmlsZS5tYWU+JywgJy1vbWFlJywgJzxvdXRmaWxlLm1hZT4n

> <r_lp_tautomer_probability>
1

> <r_epik_Ionization_Penalty>
  0.0235

> <r_epik_Ionization_Penalty_Charging>
  0.0000

> <r_epik_Ionization_Penalty_Neutral>
  0.0235

> <r_epik_State_Penalty>
  0.0190

> <r_epik_Charging_Adjusted_Penalty>
0.0189995681741242

> <i_epik_Tot_Q>
0

> <i_epik_Tot_abs_Q>
0

> <s_lp_Force_Field>
OPLS3e

> <r_lp_Energy>
27.558145

> <b_lp_Chiralities_Consistent>
1

> <s_lp_Variant>
sdf/inactives_sanitized.sdf:139-1

$$$$
sdf/inactives_sanitized.sdf:140
                    3D
 Schrodinger Suite 2020-1.
 51 53  0  0  1  0            999 V2000
   -3.2730    0.4056   -0.7067 C   0  0  0  0  0  0
   -4.6131    0.2312   -1.0331 C   0  0  0  0  0  0
   -4.9974   -0.6152   -2.0682 C   0  0  0  0  0  0
   -2.2622   -0.2667   -1.4093 C   0  0  0  0  0  0
   -2.6160   -1.1312   -2.4654 C   0  0  0  0  0  0
   -3.9971   -1.2923   -2.7794 C   0  0  0  0  0  0
   -4.2294   -2.4079   -4.1146 S   0  0  0  0  0  0
   -2.4936   -2.6538   -4.2619 C   0  0  0  0  0  0
   -1.7905   -1.9173   -3.3202 C   0  0  0  0  0  0
   -1.9706   -3.5114   -5.2115 C   0  0  0  0  0  0
   -2.5639   -3.6099   -6.3943 N   0  0  0  0  0  0
   -0.8809   -4.2057   -4.9096 N   0  3  0  0  0  0
   -0.9037   -0.1727   -1.1634 O   0  0  0  0  0  0
   -0.4133    0.6625   -0.1059 C   0  0  2  0  0  0
    1.1039    0.8373   -0.3045 C   0  0  0  0  0  0
   -0.6849    0.0334    1.2674 C   0  0  0  0  0  0
    1.6381    1.9831    0.1609 N   0  0  0  0  0  0
    3.0603    2.3461    0.1398 C   0  0  0  0  0  0
    1.7697   -0.0497   -0.8436 O   0  0  0  0  0  0
   -0.9065    0.8625    2.3723 C   0  0  0  0  0  0
   -1.1340    0.3075    3.6286 C   0  0  0  0  0  0
   -1.1306   -1.0768    3.7824 C   0  0  0  0  0  0
   -0.8969   -1.9116    2.6921 C   0  0  0  0  0  0
   -0.6701   -1.3571    1.4356 C   0  0  0  0  0  0
    3.7992    2.0864    1.4743 C   0  0  0  0  0  0
    3.7229    0.6377    1.9725 C   0  0  0  0  0  0
    2.8251    0.4751    2.9671 O   0  0  0  0  0  0
    4.4169   -0.2458    1.4666 O   0  0  0  0  0  0
    2.6049   -0.8075    3.5343 C   0  0  0  0  0  0
   -3.0337    1.0710    0.1086 H   0  0  0  0  0  0
   -5.3683    0.7614   -0.4713 H   0  0  0  0  0  0
   -6.0421   -0.7444   -2.3123 H   0  0  0  0  0  0
   -0.7132   -1.9311   -3.2408 H   0  0  0  0  0  0
   -2.1886   -4.2308   -7.0961 H   0  0  0  0  0  0
   -3.3892   -3.0609   -6.5863 H   0  0  0  0  0  0
   -0.4827   -4.8386   -5.5876 H   0  0  0  0  0  0
   -0.8806    1.6482   -0.1690 H   0  0  0  0  0  0
    1.0155    2.6706    0.5596 H   0  0  0  0  0  0
    3.5546    1.7795   -0.6527 H   0  0  0  0  0  0
    3.1439    3.3990   -0.1308 H   0  0  0  0  0  0
   -0.9041    1.9370    2.2587 H   0  0  0  0  0  0
   -1.3098    0.9476    4.4805 H   0  0  0  0  0  0
   -1.3053   -1.5071    4.7575 H   0  0  0  0  0  0
   -0.8879   -2.9839    2.8212 H   0  0  0  0  0  0
   -0.4803   -2.0089    0.5952 H   0  0  0  0  0  0
    4.8452    2.3832    1.3961 H   0  0  0  0  0  0
    3.3445    2.7072    2.2473 H   0  0  0  0  0  0
    1.8603   -0.7376    4.3269 H   0  0  0  0  0  0
    3.5227   -1.2102    3.9652 H   0  0  0  0  0  0
    2.2369   -1.5087    2.7838 H   0  0  0  0  0  0
   -0.4585   -4.1017   -3.9987 H   0  0  0  0  0  0
  1  2  2  0  0  0
  1  4  1  0  0  0
  1 30  1  0  0  0
  2  3  1  0  0  0
  2 31  1  0  0  0
  3  6  2  0  0  0
  3 32  1  0  0  0
  4  5  2  0  0  0
  4 13  1  0  0  0
  5  9  1  0  0  0
  5  6  1  0  0  0
  6  7  1  0  0  0
  7  8  1  0  0  0
  8  9  2  0  0  0
  8 10  1  0  0  0
  9 33  1  0  0  0
 10 11  1  0  0  0
 10 12  2  0  0  0
 11 34  1  0  0  0
 11 35  1  0  0  0
 12 36  1  0  0  0
 12 51  1  0  0  0
 13 14  1  0  0  0
 14 15  1  0  0  0
 14 16  1  0  0  0
 14 37  1  0  0  0
 15 17  1  0  0  0
 15 19  2  0  0  0
 16 20  2  0  0  0
 16 24  1  0  0  0
 17 18  1  0  0  0
 17 38  1  0  0  0
 18 25  1  0  0  0
 18 39  1  0  0  0
 18 40  1  0  0  0
 20 21  1  0  0  0
 20 41  1  0  0  0
 21 22  2  0  0  0
 21 42  1  0  0  0
 22 23  1  0  0  0
 22 43  1  0  0  0
 23 24  2  0  0  0
 23 44  1  0  0  0
 24 45  1  0  0  0
 25 26  1  0  0  0
 25 46  1  0  0  0
 25 47  1  0  0  0
 26 27  1  0  0  0
 26 28  2  0  0  0
 27 29  1  0  0  0
 29 48  1  0  0  0
 29 49  1  0  0  0
 29 50  1  0  0  0
M  CHG  1  12   1
M  END
> <chembl_id>
CHEMBL598579

> <chembl_pref_name>
None

> <s_m_source_file>
sdf/inactives_sanitized.sdf

> <i_m_source_file_index>
140

> <i_lp_mmshare_version>
49012

> <i_m_ct_stereo_status>
1

> <i_f3d_flags>
0

> <s_epik_input>
W0hdXE49QyhbTkgyXSlcYyhbY0hdMSlzYyhjMTIpW2NIXVtjSF1bY0hdYzJPW0NAQEhdKGMzW2NIXVtjSF1bY0hdW2NIXVtjSF0zKUMoPU8pW05IXVtDSDJdW0NIMl1DKD1PKU9bQ0gzXQ==

> <s_epik_cmdline>
J2VwaWtfcHl0aG9uJywgJy1waHQnLCAnMC41JywgJy1waCcsICc3LjUnLCAnLW50JywgJy1tYScsICcyMDAnLCAnLWltYWUnLCAnPGluZmlsZS5tYWU+JywgJy1vbWFlJywgJzxvdXRmaWxlLm1hZT4n

> <r_lp_tautomer_probability>
1

> <r_epik_Ionization_Penalty>
  0.0095

> <r_epik_Ionization_Penalty_Charging>
  0.0095

> <r_epik_Ionization_Penalty_Neutral>
  0.0000

> <r_epik_State_Penalty>
 -0.0000

> <r_epik_Charging_Adjusted_Penalty>
0.00945881282357717

> <i_epik_Tot_Q>
1

> <i_epik_Tot_abs_Q>
1

> <s_epik_Chemistry_Notes>
This compound has an ester and may undergo hydrolysis at high or low pH. This compound has an imine and may undergo hydrolysis.

> <s_lp_Force_Field>
OPLS3e

> <r_lp_Energy>
25.282024

> <b_lp_Chiralities_Consistent>
1

> <s_lp_Variant>
sdf/inactives_sanitized.sdf:140-1

$$$$
sdf/inactives_sanitized.sdf:141
                    3D
 Schrodinger Suite 2020-1.
 45 47  0  0  1  0            999 V2000
    0.1316    2.6606   -0.1070 C   0  0  0  0  0  0
   -0.5239    3.8806   -0.2307 C   0  0  0  0  0  0
   -1.9127    3.9495   -0.2858 C   0  0  0  0  0  0
   -0.5856    1.4580   -0.0298 C   0  0  0  0  0  0
   -1.9940    1.4910   -0.0803 C   0  0  0  0  0  0
   -2.6411    2.7540   -0.2112 C   0  0  0  0  0  0
   -4.3875    2.5808   -0.2643 S   0  0  0  0  0  0
   -4.2585    0.8336   -0.1021 C   0  0  0  0  0  0
   -2.9362    0.4240   -0.0219 C   0  0  0  0  0  0
   -5.3831    0.0296   -0.0880 C   0  0  0  0  0  0
   -6.4976    0.4807    0.4738 N   0  0  0  0  0  0
   -5.3068   -1.1787   -0.6315 N   0  3  0  0  0  0
   -0.0401    0.1927    0.0894 O   0  0  0  0  0  0
    1.3786    0.0063    0.1492 C   0  0  2  0  0  0
    1.6835   -1.4866   -0.1107 C   0  0  0  0  0  0
    1.9409    0.4667    1.4968 C   0  0  0  0  0  0
    1.2062    0.2853    2.6740 C   0  0  0  0  0  0
    1.7245    0.7141    3.8928 C   0  0  0  0  0  0
    2.9766    1.3233    3.9338 C   0  0  0  0  0  0
    3.7158    1.5060    2.7673 C   0  0  0  0  0  0
    3.1982    1.0762    1.5482 C   0  0  0  0  0  0
    1.2706   -1.9539   -1.4365 N   0  0  0  0  0  0
    0.0435   -2.3985   -1.7600 C   0  0  0  0  0  0
   -0.1630   -2.8278   -3.2088 C   0  0  0  0  0  0
   -0.8941   -2.4726   -0.9656 O   0  0  0  0  0  0
    1.2102    2.6668   -0.0696 H   0  0  0  0  0  0
    0.0562    4.7901   -0.2861 H   0  0  0  0  0  0
   -2.4115    4.9028   -0.3844 H   0  0  0  0  0  0
   -2.6422   -0.6106    0.0784 H   0  0  0  0  0  0
   -7.3240   -0.0986    0.4915 H   0  0  0  0  0  0
   -6.5117    1.4038    0.8826 H   0  0  0  0  0  0
   -6.1150   -1.7833   -0.6316 H   0  0  0  0  0  0
    1.8391    0.5822   -0.6568 H   0  0  0  0  0  0
    2.7588   -1.6539   -0.0372 H   0  0  0  0  0  0
    1.2305   -2.1073    0.6659 H   0  0  0  0  0  0
    0.2353   -0.1879    2.6471 H   0  0  0  0  0  0
    1.1580    0.5745    4.8017 H   0  0  0  0  0  0
    3.3782    1.6563    4.8796 H   0  0  0  0  0  0
    4.6860    1.9789    2.8084 H   0  0  0  0  0  0
    3.7749    1.2190    0.6459 H   0  0  0  0  0  0
    1.9834   -1.9479   -2.1516 H   0  0  0  0  0  0
    0.7429   -2.6955   -3.8016 H   0  0  0  0  0  0
   -0.9585   -2.2383   -3.6650 H   0  0  0  0  0  0
   -0.4482   -3.8792   -3.2509 H   0  0  0  0  0  0
   -4.4378   -1.4880   -1.0426 H   0  0  0  0  0  0
  1  2  2  0  0  0
  1  4  1  0  0  0
  1 26  1  0  0  0
  2  3  1  0  0  0
  2 27  1  0  0  0
  3  6  2  0  0  0
  3 28  1  0  0  0
  4 13  1  0  0  0
  4  5  2  0  0  0
  5  9  1  0  0  0
  5  6  1  0  0  0
  6  7  1  0  0  0
  7  8  1  0  0  0
  8  9  2  0  0  0
  8 10  1  0  0  0
  9 29  1  0  0  0
 10 12  2  0  0  0
 10 11  1  0  0  0
 11 30  1  0  0  0
 11 31  1  0  0  0
 12 32  1  0  0  0
 12 45  1  0  0  0
 13 14  1  0  0  0
 14 15  1  0  0  0
 14 16  1  0  0  0
 14 33  1  0  0  0
 15 22  1  0  0  0
 15 34  1  0  0  0
 15 35  1  0  0  0
 16 17  2  0  0  0
 16 21  1  0  0  0
 17 18  1  0  0  0
 17 36  1  0  0  0
 18 19  2  0  0  0
 18 37  1  0  0  0
 19 20  1  0  0  0
 19 38  1  0  0  0
 20 21  2  0  0  0
 20 39  1  0  0  0
 21 40  1  0  0  0
 22 23  1  0  0  0
 22 41  1  0  0  0
 23 24  1  0  0  0
 23 25  2  0  0  0
 24 42  1  0  0  0
 24 43  1  0  0  0
 24 44  1  0  0  0
M  CHG  1  12   1
M  END
> <chembl_id>
CHEMBL599615

> <chembl_pref_name>
None

> <s_m_source_file>
sdf/inactives_sanitized.sdf

> <i_m_source_file_index>
141

> <i_lp_mmshare_version>
49012

> <i_m_ct_stereo_status>
1

> <i_f3d_flags>
0

> <s_epik_input>
W0hdXE49QyhbTkgyXSlcYyhbY0hdMSlzYyhjMTIpW2NIXVtjSF1bY0hdYzJPW0NASF0oW0NIMl1bTkhdQyg9TylbQ0gzXSljM1tjSF1bY0hdW2NIXVtjSF1bY0hdMw==

> <s_epik_cmdline>
J2VwaWtfcHl0aG9uJywgJy1waHQnLCAnMC41JywgJy1waCcsICc3LjUnLCAnLW50JywgJy1tYScsICcyMDAnLCAnLWltYWUnLCAnPGluZmlsZS5tYWU+JywgJy1vbWFlJywgJzxvdXRmaWxlLm1hZT4n

> <r_lp_tautomer_probability>
1

> <r_epik_Ionization_Penalty>
  0.0095

> <r_epik_Ionization_Penalty_Charging>
  0.0095

> <r_epik_Ionization_Penalty_Neutral>
  0.0000

> <r_epik_State_Penalty>
 -0.0000

> <r_epik_Charging_Adjusted_Penalty>
0.00945881282357717

> <i_epik_Tot_Q>
1

> <i_epik_Tot_abs_Q>
1

> <s_epik_Chemistry_Notes>
This compound has an imine and may undergo hydrolysis.

> <s_lp_Force_Field>
OPLS3e

> <r_lp_Energy>
18.968643

> <b_lp_Chiralities_Consistent>
1

> <s_lp_Variant>
sdf/inactives_sanitized.sdf:141-1

$$$$
sdf/inactives_sanitized.sdf:142
                    3D
 Schrodinger Suite 2020-1.
 45 48  0  0  1  0            999 V2000
   -0.7209    2.0632    0.9122 N   0  0  0  0  0  0
   -1.0847    3.3365   -0.9658 C   0  0  0  0  0  0
   -1.4396    4.4828   -1.6827 C   0  0  0  0  0  0
   -1.4772    4.4394    1.1867 C   0  0  0  0  0  0
   -1.8287    5.5827    0.4591 C   0  0  0  0  0  0
   -1.8114    5.6023   -0.9363 C   0  0  0  0  0  0
   -1.1024    3.2980    0.4532 C   0  0  0  0  0  0
   -0.4657    1.3641   -0.1664 C   0  0  0  0  0  0
   -0.6661    2.0749   -1.3259 N   0  0  0  0  0  0
    0.0297   -0.0708   -0.1559 C   0  0  0  0  0  0
    1.5602   -0.2005    0.0338 C   0  0  0  0  0  0
    2.1007    0.5258    1.1849 N   0  0  0  0  0  0
    1.8523    0.2334    2.4755 C   0  0  0  0  0  0
    2.4175    1.2093    3.4782 C   0  0  0  0  0  0
    1.1903   -0.7399    2.8397 O   0  0  0  0  0  0
    3.7514    1.6282    3.3578 C   0  0  0  0  0  0
    4.3031    2.5342    4.2612 C   0  0  0  0  0  0
    3.5262    3.0503    5.3027 C   0  0  0  0  0  0
    2.1903    2.6520    5.4215 C   0  0  0  0  0  0
    1.6305    1.7450    4.5193 C   0  0  0  0  0  0
    4.0825    3.9665    6.2217 N   0  0  0  0  0  0
    5.3969    4.1141    6.6087 C   0  0  0  0  0  0
    5.5490    5.0711    7.4895 N   0  0  0  0  0  0
    4.2866    5.6089    7.7182 N   0  0  0  0  0  0
    3.4505    4.9413    6.9631 C   0  0  0  0  0  0
   -1.4212    4.5011   -3.0528 O   0  0  0  0  0  0
   -1.5104    4.4753    2.7053 C   0  0  0  0  0  0
   -0.0466    1.3518    4.7246 Cl  0  0  0  0  0  0
   -2.1222    6.4809    0.9829 H   0  0  0  0  0  0
   -2.0921    6.5114   -1.4481 H   0  0  0  0  0  0
   -0.4760   -0.6330    0.6302 H   0  0  0  0  0  0
   -0.2553   -0.5778   -1.0785 H   0  0  0  0  0  0
    1.8474   -1.2519    0.0937 H   0  0  0  0  0  0
    2.0606    0.2045   -0.8466 H   0  0  0  0  0  0
    2.6656    1.3361    0.9768 H   0  0  0  0  0  0
    4.3786    1.2450    2.5649 H   0  0  0  0  0  0
    5.3342    2.8321    4.1377 H   0  0  0  0  0  0
    1.5729    3.0432    6.2173 H   0  0  0  0  0  0
    6.1708    3.4779    6.2052 H   0  0  0  0  0  0
    2.3850    5.0987    6.8831 H   0  0  0  0  0  0
   -1.7001    5.3431   -3.4203 H   0  0  0  0  0  0
   -1.8237    5.4457    3.0925 H   0  0  0  0  0  0
   -0.5213    4.2491    3.1055 H   0  0  0  0  0  0
   -2.1967    3.7167    3.0829 H   0  0  0  0  0  0
   -0.5169    1.6949   -2.2494 H   0  0  0  0  0  0
  1  7  1  0  0  0
  1  8  2  0  0  0
  2  3  2  0  0  0
  2  7  1  0  0  0
  2  9  1  0  0  0
  3  6  1  0  0  0
  3 26  1  0  0  0
  4  7  2  0  0  0
  4  5  1  0  0  0
  4 27  1  0  0  0
  5  6  2  0  0  0
  5 29  1  0  0  0
  6 30  1  0  0  0
  8  9  1  0  0  0
  8 10  1  0  0  0
  9 45  1  0  0  0
 10 11  1  0  0  0
 10 31  1  0  0  0
 10 32  1  0  0  0
 11 12  1  0  0  0
 11 33  1  0  0  0
 11 34  1  0  0  0
 12 13  1  0  0  0
 12 35  1  0  0  0
 13 14  1  0  0  0
 13 15  2  0  0  0
 14 16  2  0  0  0
 14 20  1  0  0  0
 16 17  1  0  0  0
 16 36  1  0  0  0
 17 18  2  0  0  0
 17 37  1  0  0  0
 18 19  1  0  0  0
 18 21  1  0  0  0
 19 20  2  0  0  0
 19 38  1  0  0  0
 20 28  1  0  0  0
 21 22  1  0  0  0
 21 25  1  0  0  0
 22 23  2  0  0  0
 22 39  1  0  0  0
 23 24  1  0  0  0
 24 25  2  0  0  0
 25 40  1  0  0  0
 26 41  1  0  0  0
 27 42  1  0  0  0
 27 43  1  0  0  0
 27 44  1  0  0  0
M  END
> <chembl_id>
CHEMBL3423032

> <chembl_pref_name>
None

> <s_m_source_file>
sdf/inactives_sanitized.sdf

> <i_m_source_file_index>
142

> <i_lp_mmshare_version>
49012

> <i_m_ct_stereo_status>
1

> <i_f3d_flags>
0

> <s_epik_input>
W09IXWMxW2NIXVtjSF1jKFtDSDNdKWMoYzEyKVtuSF1jKG4yKVtDSDJdW0NIMl1bTkhdQyg9TyljM1tjSF1bY0hdYyhbY0hdYzNDbCktbjRbY0hdbm5bY0hdNA==

> <s_epik_cmdline>
J2VwaWtfcHl0aG9uJywgJy1waHQnLCAnMC41JywgJy1waCcsICc3LjUnLCAnLW50JywgJy1tYScsICcyMDAnLCAnLWltYWUnLCAnPGluZmlsZS5tYWU+JywgJy1vbWFlJywgJzxvdXRmaWxlLm1hZT4n

> <r_lp_tautomer_probability>
1

> <r_epik_Ionization_Penalty>
  0.0294

> <r_epik_Ionization_Penalty_Charging>
  0.0000

> <r_epik_Ionization_Penalty_Neutral>
  0.0294

> <r_epik_State_Penalty>
  0.2849

> <r_epik_Charging_Adjusted_Penalty>
0.28491554182343

> <i_epik_Tot_Q>
0

> <i_epik_Tot_abs_Q>
0

> <s_lp_Force_Field>
OPLS3e

> <r_lp_Energy>
25.979271

> <b_lp_Chiralities_Consistent>
1

> <s_lp_Variant>
sdf/inactives_sanitized.sdf:142-1

$$$$
sdf/inactives_sanitized.sdf:142
                    3D
 Schrodinger Suite 2020-1.
 45 48  0  0  1  0            999 V2000
   -0.6590    2.0509   -1.2885 N   0  0  0  0  0  0
   -1.1656    3.2618    0.4764 C   0  0  0  0  0  0
   -1.5730    4.4036    1.1846 C   0  0  0  0  0  0
   -1.4172    4.4543   -1.6843 C   0  0  0  0  0  0
   -1.8216    5.5672   -0.9343 C   0  0  0  0  0  0
   -1.8979    5.5487    0.4587 C   0  0  0  0  0  0
   -1.0930    3.3107   -0.9414 C   0  0  0  0  0  0
   -0.5035    1.3334   -0.1263 C   0  0  0  0  0  0
   -0.7998    2.0255    0.9457 N   0  0  0  0  0  0
   -0.0028   -0.0991   -0.1068 C   0  0  0  0  0  0
    1.5308   -0.2170    0.0600 C   0  0  0  0  0  0
    2.0809    0.5205    1.1994 N   0  0  0  0  0  0
    1.8632    0.2220    2.4941 C   0  0  0  0  0  0
    2.4351    1.2024    3.4891 C   0  0  0  0  0  0
    1.2252   -0.7635    2.8680 O   0  0  0  0  0  0
    3.7551    1.6525    3.3343 C   0  0  0  0  0  0
    4.3131    2.5605    4.2316 C   0  0  0  0  0  0
    3.5566    3.0478    5.3016 C   0  0  0  0  0  0
    2.2340    2.6186    5.4550 C   0  0  0  0  0  0
    1.6679    1.7091    4.5592 C   0  0  0  0  0  0
    4.1199    3.9669    6.2135 N   0  0  0  0  0  0
    5.4420    4.1404    6.5610 C   0  0  0  0  0  0
    5.6004    5.0935    7.4448 N   0  0  0  0  0  0
    4.3341    5.5999    7.7187 N   0  0  0  0  0  0
    3.4897    4.9196    6.9845 C   0  0  0  0  0  0
   -1.6491    4.3954    2.5535 O   0  0  0  0  0  0
   -1.3615    4.5578   -3.1978 C   0  0  0  0  0  0
    0.0068    1.2763    4.8103 Cl  0  0  0  0  0  0
   -0.4718    1.6747   -2.2065 H   0  0  0  0  0  0
   -2.0868    6.4820   -1.4448 H   0  0  0  0  0  0
   -2.2157    6.4405    0.9791 H   0  0  0  0  0  0
   -0.4927   -0.6559    0.6933 H   0  0  0  0  0  0
   -0.2995   -0.6165   -1.0198 H   0  0  0  0  0  0
    1.8267   -1.2660    0.1220 H   0  0  0  0  0  0
    2.0152    0.1861   -0.8301 H   0  0  0  0  0  0
    2.6289    1.3397    0.9806 H   0  0  0  0  0  0
    4.3667    1.2927    2.5187 H   0  0  0  0  0  0
    5.3328    2.8833    4.0807 H   0  0  0  0  0  0
    1.6318    2.9880    6.2725 H   0  0  0  0  0  0
    6.2166    3.5249    6.1282 H   0  0  0  0  0  0
    2.4188    5.0522    6.9404 H   0  0  0  0  0  0
   -1.9475    5.2323    2.9162 H   0  0  0  0  0  0
   -1.6406    5.5498   -3.5552 H   0  0  0  0  0  0
   -2.0414    3.8337   -3.6474 H   0  0  0  0  0  0
   -0.3528    4.3435   -3.5519 H   0  0  0  0  0  0
  1  7  1  0  0  0
  1  8  1  0  0  0
  1 29  1  0  0  0
  2  3  2  0  0  0
  2  7  1  0  0  0
  2  9  1  0  0  0
  3  6  1  0  0  0
  3 26  1  0  0  0
  4  7  2  0  0  0
  4  5  1  0  0  0
  4 27  1  0  0  0
  5  6  2  0  0  0
  5 30  1  0  0  0
  6 31  1  0  0  0
  8  9  2  0  0  0
  8 10  1  0  0  0
 10 11  1  0  0  0
 10 32  1  0  0  0
 10 33  1  0  0  0
 11 12  1  0  0  0
 11 34  1  0  0  0
 11 35  1  0  0  0
 12 13  1  0  0  0
 12 36  1  0  0  0
 13 14  1  0  0  0
 13 15  2  0  0  0
 14 16  2  0  0  0
 14 20  1  0  0  0
 16 17  1  0  0  0
 16 37  1  0  0  0
 17 18  2  0  0  0
 17 38  1  0  0  0
 18 19  1  0  0  0
 18 21  1  0  0  0
 19 20  2  0  0  0
 19 39  1  0  0  0
 20 28  1  0  0  0
 21 22  1  0  0  0
 21 25  1  0  0  0
 22 23  2  0  0  0
 22 40  1  0  0  0
 23 24  1  0  0  0
 24 25  2  0  0  0
 25 41  1  0  0  0
 26 42  1  0  0  0
 27 43  1  0  0  0
 27 44  1  0  0  0
 27 45  1  0  0  0
M  END
> <chembl_id>
CHEMBL3423032

> <chembl_pref_name>
None

> <s_m_source_file>
sdf/inactives_sanitized.sdf

> <i_m_source_file_index>
142

> <i_lp_mmshare_version>
49012

> <i_m_ct_stereo_status>
1

> <i_f3d_flags>
0

> <s_epik_input>
W09IXWMxW2NIXVtjSF1jKFtDSDNdKWMoYzEyKVtuSF1jKG4yKVtDSDJdW0NIMl1bTkhdQyg9TyljM1tjSF1bY0hdYyhbY0hdYzNDbCktbjRbY0hdbm5bY0hdNA==

> <s_epik_cmdline>
J2VwaWtfcHl0aG9uJywgJy1waHQnLCAnMC41JywgJy1waCcsICc3LjUnLCAnLW50JywgJy1tYScsICcyMDAnLCAnLWltYWUnLCAnPGluZmlsZS5tYWU+JywgJy1vbWFlJywgJzxvdXRmaWxlLm1hZT4n

> <r_epik_Ionization_Penalty>
  0.0617

> <r_epik_Ionization_Penalty_Charging>
  0.0000

> <r_epik_Ionization_Penalty_Neutral>
  0.0617

> <r_epik_State_Penalty>
  0.5705

> <r_epik_Charging_Adjusted_Penalty>
0.570538963887828

> <i_epik_Tot_Q>
0

> <i_epik_Tot_abs_Q>
0

> <s_lp_Force_Field>
OPLS3e

> <r_lp_Energy>
28.031431

> <b_lp_Chiralities_Consistent>
1

> <s_lp_Variant>
sdf/inactives_sanitized.sdf:142-2

$$$$
sdf/inactives_sanitized.sdf:143
                    3D
 Schrodinger Suite 2020-1.
 57 61  0  0  1  0            999 V2000
   -1.7147   -1.4278    1.3073 N   0  0  0  0  0  0
   -0.7814   -1.4582    3.2935 C   0  0  0  0  0  0
   -0.6252   -1.8096    4.6395 C   0  0  0  0  0  0
   -2.8411   -2.7990    3.1357 C   0  0  0  0  0  0
   -2.6678   -3.1384    4.4845 C   0  0  0  0  0  0
   -1.5747   -2.6526    5.2285 C   0  0  0  0  0  0
   -1.8834   -1.9600    2.5639 C   0  0  0  0  0  0
   -0.5641   -0.6730    1.3291 C   0  0  0  0  0  0
    0.0059   -0.6549    2.5116 N   0  0  0  0  0  0
   -0.0613    0.0693    0.0910 C   0  0  2  0  0  0
    1.4829    0.0478   -0.0496 C   0  0  0  0  0  0
    2.0283   -1.3085   -0.1562 N   0  0  0  0  0  0
    2.7912   -1.9216    0.7701 C   0  0  0  0  0  0
    3.1290   -3.3665    0.4856 C   0  0  0  0  0  0
    3.1774   -1.3745    1.8041 O   0  0  0  0  0  0
    4.4201   -3.8920    0.7077 C   0  0  0  0  0  0
    4.6808   -5.2389    0.4461 C   0  0  0  0  0  0
    3.6772   -6.0820   -0.0416 C   0  0  0  0  0  0
    2.4013   -5.5622   -0.2763 C   0  0  0  0  0  0
    2.1342   -4.2196   -0.0187 C   0  0  0  0  0  0
   -1.3912   -3.0334    6.6921 C   0  0  0  0  0  0
   -3.7030   -4.0512    5.1301 C   0  0  0  0  0  0
    3.9494   -7.4436   -0.2932 N   0  0  0  0  0  0
    5.1433   -8.0389   -0.6379 C   0  0  0  0  0  0
    5.0237   -9.3338   -0.7920 N   0  0  0  0  0  0
    3.6915   -9.6454   -0.5395 N   0  0  0  0  0  0
    3.0888   -8.5188   -0.2524 C   0  0  0  0  0  0
    5.7427   -2.9279    1.2828 Cl  0  0  0  0  0  0
   -0.5993    1.5013    0.0084 C   0  0  0  0  0  0
   -1.2121    1.9455   -1.1687 C   0  0  0  0  0  0
   -1.6941    3.2488   -1.2587 C   0  0  0  0  0  0
   -1.5607    4.1107   -0.1728 C   0  0  0  0  0  0
   -0.9464    3.6821    1.0013 C   0  0  0  0  0  0
   -0.4632    2.3797    1.0909 C   0  0  0  0  0  0
   -2.2896   -1.5442    0.4857 H   0  0  0  0  0  0
    0.2142   -1.4360    5.2082 H   0  0  0  0  0  0
   -3.6779   -3.1711    2.5628 H   0  0  0  0  0  0
   -0.4448   -0.4686   -0.7790 H   0  0  0  0  0  0
    1.7775    0.5843   -0.9528 H   0  0  0  0  0  0
    1.9385    0.5989    0.7764 H   0  0  0  0  0  0
    1.8399   -1.7971   -1.0191 H   0  0  0  0  0  0
    5.6732   -5.6241    0.6316 H   0  0  0  0  0  0
    1.6089   -6.1883   -0.6597 H   0  0  0  0  0  0
    1.1337   -3.8524   -0.2009 H   0  0  0  0  0  0
   -2.2253   -2.6624    7.2884 H   0  0  0  0  0  0
   -0.4660   -2.6362    7.1117 H   0  0  0  0  0  0
   -1.3644   -4.1179    6.8010 H   0  0  0  0  0  0
   -3.2371   -4.9800    5.4599 H   0  0  0  0  0  0
   -4.5192   -4.3017    4.4512 H   0  0  0  0  0  0
   -4.1377   -3.5721    6.0078 H   0  0  0  0  0  0
    6.0421   -7.4528   -0.7618 H   0  0  0  0  0  0
    2.0478   -8.3886    0.0048 H   0  0  0  0  0  0
   -1.3179    1.2840   -2.0162 H   0  0  0  0  0  0
   -2.1683    3.5903   -2.1670 H   0  0  0  0  0  0
   -1.9343    5.1217   -0.2426 H   0  0  0  0  0  0
   -0.8428    4.3570    1.8383 H   0  0  0  0  0  0
    0.0188    2.0577    2.0025 H   0  0  0  0  0  0
  1  7  1  0  0  0
  1  8  1  0  0  0
  1 35  1  0  0  0
  2  3  2  0  0  0
  2  7  1  0  0  0
  2  9  1  0  0  0
  3  6  1  0  0  0
  3 36  1  0  0  0
  4  7  2  0  0  0
  4  5  1  0  0  0
  4 37  1  0  0  0
  5  6  2  0  0  0
  5 22  1  0  0  0
  6 21  1  0  0  0
  8  9  2  0  0  0
  8 10  1  0  0  0
 10 11  1  0  0  0
 10 29  1  0  0  0
 10 38  1  0  0  0
 11 12  1  0  0  0
 11 39  1  0  0  0
 11 40  1  0  0  0
 12 13  1  0  0  0
 12 41  1  0  0  0
 13 14  1  0  0  0
 13 15  2  0  0  0
 14 16  2  0  0  0
 14 20  1  0  0  0
 16 17  1  0  0  0
 16 28  1  0  0  0
 17 18  2  0  0  0
 17 42  1  0  0  0
 18 19  1  0  0  0
 18 23  1  0  0  0
 19 20  2  0  0  0
 19 43  1  0  0  0
 20 44  1  0  0  0
 21 45  1  0  0  0
 21 46  1  0  0  0
 21 47  1  0  0  0
 22 48  1  0  0  0
 22 49  1  0  0  0
 22 50  1  0  0  0
 23 24  1  0  0  0
 23 27  1  0  0  0
 24 25  2  0  0  0
 24 51  1  0  0  0
 25 26  1  0  0  0
 26 27  2  0  0  0
 27 52  1  0  0  0
 29 30  2  0  0  0
 29 34  1  0  0  0
 30 31  1  0  0  0
 30 53  1  0  0  0
 31 32  2  0  0  0
 31 54  1  0  0  0
 32 33  1  0  0  0
 32 55  1  0  0  0
 33 34  2  0  0  0
 33 56  1  0  0  0
 34 57  1  0  0  0
M  END
> <chembl_id>
CHEMBL3423059

> <chembl_pref_name>
None

> <i_m_ct_stereo_status>
1

> <s_m_source_file>
sdf/inactives_sanitized.sdf

> <i_m_source_file_index>
143

> <i_lp_mmshare_version>
49012

> <i_f3d_flags>
0

> <s_epik_input>
W2NIXTFjKFtDSDNdKWMoW0NIM10pW2NIXWMoYzEyKVtuSF1jKG4yKVtDQEBIXShjM1tjSF1bY0hdW2NIXVtjSF1bY0hdMylbQ0gyXVtOSF1DKD1PKWM0YyhDbClbY0hdYyhbY0hdW2NIXTQpLW41W2NIXW5uW2NIXTU=

> <s_epik_cmdline>
J2VwaWtfcHl0aG9uJywgJy1waHQnLCAnMC41JywgJy1waCcsICc3LjUnLCAnLW50JywgJy1tYScsICcyMDAnLCAnLWltYWUnLCAnPGluZmlsZS5tYWU+JywgJy1vbWFlJywgJzxvdXRmaWxlLm1hZT4n

> <r_lp_tautomer_probability>
1

> <r_epik_Ionization_Penalty>
  0.0167

> <r_epik_Ionization_Penalty_Charging>
  0.0000

> <r_epik_Ionization_Penalty_Neutral>
  0.0167

> <r_epik_State_Penalty>
  0.0132

> <r_epik_Charging_Adjusted_Penalty>
0.013171618342122

> <i_epik_Tot_Q>
0

> <i_epik_Tot_abs_Q>
0

> <s_lp_Force_Field>
OPLS3e

> <r_lp_Energy>
38.06548

> <b_lp_Chiralities_Consistent>
1

> <s_lp_Variant>
sdf/inactives_sanitized.sdf:143-1

$$$$
sdf/inactives_sanitized.sdf:144
                    3D
 Schrodinger Suite 2020-1.
 50 53  0  0  1  0            999 V2000
   -0.3154    2.2241    1.2375 N   0  0  0  0  0  0
   -1.3070    3.2653   -0.4224 C   0  0  0  0  0  0
   -1.8989    4.3358   -1.1029 C   0  0  0  0  0  0
   -0.9123    4.6812    1.5539 C   0  0  0  0  0  0
   -1.5050    5.7413    0.8542 C   0  0  0  0  0  0
   -1.9920    5.5737   -0.4569 C   0  0  0  0  0  0
   -0.8236    3.4550    0.8933 C   0  0  0  0  0  0
   -0.4991    1.3910    0.1583 C   0  0  0  0  0  0
   -1.0966    1.9801   -0.8485 N   0  0  0  0  0  0
    0.0044   -0.0407    0.1316 C   0  0  0  0  0  0
    1.5449   -0.1567   -0.0042 C   0  0  2  0  0  0
    2.0627    0.5211   -1.1990 N   0  0  0  0  0  0
    2.5215    1.7880   -1.2527 C   0  0  0  0  0  0
    2.8909    2.2900   -2.6292 C   0  0  0  0  0  0
    2.6237    2.5147   -0.2629 O   0  0  0  0  0  0
    2.5255    3.5780   -3.0777 C   0  0  0  0  0  0
    2.8797    3.9970   -4.3619 C   0  0  0  0  0  0
    3.5891    3.1529   -5.2226 C   0  0  0  0  0  0
    3.9431    1.8732   -4.7860 C   0  0  0  0  0  0
    3.5942    1.4485   -3.5059 C   0  0  0  0  0  0
   -2.6262    6.7346   -1.2124 C   0  0  0  0  0  0
   -1.6118    7.0892    1.5563 C   0  0  0  0  0  0
    3.9390    3.5872   -6.5192 N   0  0  0  0  0  0
    4.1566    4.8701   -6.9728 C   0  0  0  0  0  0
    4.4665    4.8991   -8.2447 N   0  0  0  0  0  0
    4.4603    3.5807   -8.6884 N   0  0  0  0  0  0
    4.1494    2.8374   -7.6561 C   0  0  0  0  0  0
    1.6101    4.6894   -2.1096 Cl  0  0  0  0  0  0
    2.0008   -1.6254    0.0045 C   0  0  0  0  0  0
    0.1373    1.9392    2.0936 H   0  0  0  0  0  0
   -2.2686    4.2063   -2.1097 H   0  0  0  0  0  0
   -0.5363    4.8082    2.5586 H   0  0  0  0  0  0
   -0.3198   -0.5533    1.0384 H   0  0  0  0  0  0
   -0.4669   -0.5817   -0.6910 H   0  0  0  0  0  0
    1.9898    0.2975    0.8848 H   0  0  0  0  0  0
    2.0634   -0.0223   -2.0495 H   0  0  0  0  0  0
    2.5833    4.9833   -4.6889 H   0  0  0  0  0  0
    4.4953    1.2012   -5.4267 H   0  0  0  0  0  0
    3.8895    0.4551   -3.1981 H   0  0  0  0  0  0
   -1.9362    7.5778   -1.2602 H   0  0  0  0  0  0
   -3.5272    7.0744   -0.7005 H   0  0  0  0  0  0
   -2.8937    6.4677   -2.2359 H   0  0  0  0  0  0
   -2.6495    7.4229    1.5818 H   0  0  0  0  0  0
   -1.0366    7.8446    1.0201 H   0  0  0  0  0  0
   -1.2511    7.0522    2.5850 H   0  0  0  0  0  0
    4.0767    5.7170   -6.3074 H   0  0  0  0  0  0
    4.0459    1.7624   -7.6413 H   0  0  0  0  0  0
    1.5947   -2.1520    0.8690 H   0  0  0  0  0  0
    3.0868   -1.7081    0.0643 H   0  0  0  0  0  0
    1.6521   -2.1617   -0.8791 H   0  0  0  0  0  0
  1  7  1  0  0  0
  1  8  1  0  0  0
  1 30  1  0  0  0
  2  3  2  0  0  0
  2  7  1  0  0  0
  2  9  1  0  0  0
  3  6  1  0  0  0
  3 31  1  0  0  0
  4  7  2  0  0  0
  4  5  1  0  0  0
  4 32  1  0  0  0
  5  6  2  0  0  0
  5 22  1  0  0  0
  6 21  1  0  0  0
  8  9  2  0  0  0
  8 10  1  0  0  0
 10 11  1  0  0  0
 10 33  1  0  0  0
 10 34  1  0  0  0
 11 12  1  0  0  0
 11 29  1  0  0  0
 11 35  1  0  0  0
 12 13  1  0  0  0
 12 36  1  0  0  0
 13 14  1  0  0  0
 13 15  2  0  0  0
 14 16  2  0  0  0
 14 20  1  0  0  0
 16 17  1  0  0  0
 16 28  1  0  0  0
 17 18  2  0  0  0
 17 37  1  0  0  0
 18 19  1  0  0  0
 18 23  1  0  0  0
 19 20  2  0  0  0
 19 38  1  0  0  0
 20 39  1  0  0  0
 21 40  1  0  0  0
 21 41  1  0  0  0
 21 42  1  0  0  0
 22 43  1  0  0  0
 22 44  1  0  0  0
 22 45  1  0  0  0
 23 24  1  0  0  0
 23 27  1  0  0  0
 24 25  2  0  0  0
 24 46  1  0  0  0
 25 26  1  0  0  0
 26 27  2  0  0  0
 27 47  1  0  0  0
 29 48  1  0  0  0
 29 49  1  0  0  0
 29 50  1  0  0  0
M  END
> <chembl_id>
CHEMBL3423056

> <chembl_pref_name>
None

> <i_m_ct_stereo_status>
1

> <s_m_source_file>
sdf/inactives_sanitized.sdf

> <i_m_source_file_index>
144

> <i_lp_mmshare_version>
49012

> <i_f3d_flags>
0

> <s_epik_input>
W2NIXTFjKFtDSDNdKWMoW0NIM10pW2NIXWMoYzEyKVtuSF1jKG4yKVtDSDJdW0NAQEhdKFtDSDNdKVtOSF1DKD1PKWMzYyhDbClbY0hdYyhbY0hdW2NIXTMpLW40W2NIXW5uW2NIXTQ=

> <s_epik_cmdline>
J2VwaWtfcHl0aG9uJywgJy1waHQnLCAnMC41JywgJy1waCcsICc3LjUnLCAnLW50JywgJy1tYScsICcyMDAnLCAnLWltYWUnLCAnPGluZmlsZS5tYWU+JywgJy1vbWFlJywgJzxvdXRmaWxlLm1hZT4n

> <r_lp_tautomer_probability>
1

> <r_epik_Ionization_Penalty>
  0.0247

> <r_epik_Ionization_Penalty_Charging>
  0.0000

> <r_epik_Ionization_Penalty_Neutral>
  0.0247

> <r_epik_State_Penalty>
  0.0201

> <r_epik_Charging_Adjusted_Penalty>
0.0200614226594895

> <i_epik_Tot_Q>
0

> <i_epik_Tot_abs_Q>
0

> <s_lp_Force_Field>
OPLS3e

> <r_lp_Energy>
21.329923

> <b_lp_Chiralities_Consistent>
1

> <s_lp_Variant>
sdf/inactives_sanitized.sdf:144-1

$$$$
sdf/inactives_sanitized.sdf:145
                    3D
 Schrodinger Suite 2020-1.
 67 71  0  0  1  0            999 V2000
   -5.2313    1.7786   -0.9338 C   0  0  0  0  0  0
   -4.1109    0.9723   -1.6220 C   0  0  2  0  0  0
   -2.7255    1.6708   -1.4864 C   0  0  0  0  0  0
   -2.0868    1.5970   -0.0738 C   0  0  0  0  0  0
   -0.5372    1.4919   -0.0668 C   0  0  0  0  0  0
    0.0491    0.0464   -0.1709 C   0  0  2  0  0  0
    1.5292   -0.0004   -0.0638 N   0  0  0  0  0  0
    2.3497    1.0406   -0.7532 C   0  0  0  0  0  0
    3.7808    0.5585   -1.1154 C   0  0  0  0  0  0
    4.3677   -0.1881    0.0659 C   0  0  0  0  0  0
    3.5431   -0.9317    0.8267 C   0  0  0  0  0  0
    2.1107   -1.0232    0.6455 C   0  0  0  0  0  0
    1.4920   -1.9834    1.1081 O   0  0  0  0  0  0
    5.8297   -0.3086    0.2177 C   0  0  0  0  0  0
    6.5945   -0.8502   -0.8225 C   0  0  0  0  0  0
    7.9796   -0.9566   -0.7037 C   0  0  0  0  0  0
    8.6155   -0.5141    0.4546 C   0  0  0  0  0  0
    7.8677    0.0388    1.4945 C   0  0  0  0  0  0
    8.6723    0.5901    2.9209 Cl  0  0  0  0  0  0
    6.4779    0.1454    1.3767 C   0  0  0  0  0  0
    5.7593    0.6921    2.3876 F   0  0  0  0  0  0
   -0.4990   -0.7158   -1.3813 C   0  0  0  0  0  0
   -1.7024   -1.4136   -1.2620 C   0  0  0  0  0  0
   -2.3400   -1.8765   -2.4160 C   0  0  0  0  0  0
   -1.6802   -1.7440   -3.6440 C   0  0  0  0  0  0
   -0.4298   -1.1222   -3.6728 C   0  0  0  0  0  0
    0.1562   -0.5926   -2.5687 N   0  0  0  0  0  0
   -3.7232   -2.4057   -2.3194 C   0  0  0  0  0  0
   -3.9450   -3.5974   -1.6228 C   0  0  0  0  0  0
   -5.2282   -4.1227   -1.4848 C   0  0  0  0  0  0
   -6.3371   -3.4653   -2.0394 C   0  0  0  0  0  0
   -6.1184   -2.2663   -2.7323 C   0  0  0  0  0  0
   -4.8354   -1.7256   -2.8608 C   0  0  0  0  0  0
   -4.7271   -0.5279   -3.5861 N   0  0  0  0  0  0
   -4.4503    0.7093   -3.1137 C   0  0  0  0  0  0
   -4.4653    1.6641   -3.8896 O   0  0  0  0  0  0
   -7.7418   -4.0175   -1.9107 C   0  0  0  0  0  0
   -8.6816   -3.5380   -2.5438 O   0  0  0  0  0  0
   -7.9250   -5.0491   -1.0785 N   0  0  0  0  0  0
   -6.1935    1.2699   -1.0110 H   0  0  0  0  0  0
   -5.3484    2.7696   -1.3749 H   0  0  0  0  0  0
   -5.0237    1.9126    0.1282 H   0  0  0  0  0  0
   -4.0590    0.0189   -1.1012 H   0  0  0  0  0  0
   -2.0363    1.2399   -2.2119 H   0  0  0  0  0  0
   -2.8021    2.7163   -1.7909 H   0  0  0  0  0  0
   -2.3856    2.4894    0.4779 H   0  0  0  0  0  0
   -2.5003    0.7659    0.4984 H   0  0  0  0  0  0
   -0.1369    2.1388   -0.8477 H   0  0  0  0  0  0
   -0.1830    1.9205    0.8721 H   0  0  0  0  0  0
   -0.3499   -0.4685    0.7057 H   0  0  0  0  0  0
    1.8203    1.4990   -1.5882 H   0  0  0  0  0  0
    2.4698    1.8410   -0.0216 H   0  0  0  0  0  0
    3.7050   -0.1239   -1.9632 H   0  0  0  0  0  0
    4.4111    1.3944   -1.4206 H   0  0  0  0  0  0
    3.9688   -1.5415    1.6118 H   0  0  0  0  0  0
    6.1153   -1.1957   -1.7274 H   0  0  0  0  0  0
    8.5596   -1.3812   -1.5101 H   0  0  0  0  0  0
    9.6889   -0.5981    0.5423 H   0  0  0  0  0  0
   -2.2004   -1.4796   -0.3051 H   0  0  0  0  0  0
   -2.1351   -2.0968   -4.5584 H   0  0  0  0  0  0
    0.1048   -1.0037   -4.6038 H   0  0  0  0  0  0
   -3.1121   -4.1285   -1.1842 H   0  0  0  0  0  0
   -5.3403   -5.0504   -0.9427 H   0  0  0  0  0  0
   -6.9542   -1.7370   -3.1706 H   0  0  0  0  0  0
   -5.0055   -0.5873   -4.5548 H   0  0  0  0  0  0
   -7.1489   -5.4306   -0.5585 H   0  0  0  0  0  0
   -8.8453   -5.4477   -0.9633 H   0  0  0  0  0  0
  1  2  1  0  0  0
  1 40  1  0  0  0
  1 41  1  0  0  0
  1 42  1  0  0  0
  2  3  1  0  0  0
  2 35  1  0  0  0
  2 43  1  0  0  0
  3  4  1  0  0  0
  3 44  1  0  0  0
  3 45  1  0  0  0
  4  5  1  0  0  0
  4 46  1  0  0  0
  4 47  1  0  0  0
  5  6  1  0  0  0
  5 48  1  0  0  0
  5 49  1  0  0  0
  6  7  1  0  0  0
  6 22  1  0  0  0
  6 50  1  0  0  0
  7  8  1  0  0  0
  7 12  1  0  0  0
  8  9  1  0  0  0
  8 51  1  0  0  0
  8 52  1  0  0  0
  9 10  1  0  0  0
  9 53  1  0  0  0
  9 54  1  0  0  0
 10 11  2  0  0  0
 10 14  1  0  0  0
 11 12  1  0  0  0
 11 55  1  0  0  0
 12 13  2  0  0  0
 14 15  2  0  0  0
 14 20  1  0  0  0
 15 16  1  0  0  0
 15 56  1  0  0  0
 16 17  2  0  0  0
 16 57  1  0  0  0
 17 18  1  0  0  0
 17 58  1  0  0  0
 18 19  1  0  0  0
 18 20  2  0  0  0
 20 21  1  0  0  0
 22 23  1  0  0  0
 22 27  2  0  0  0
 23 24  2  0  0  0
 23 59  1  0  0  0
 24 25  1  0  0  0
 24 28  1  0  0  0
 25 26  2  0  0  0
 25 60  1  0  0  0
 26 27  1  0  0  0
 26 61  1  0  0  0
 28 29  2  0  0  0
 28 33  1  0  0  0
 29 30  1  0  0  0
 29 62  1  0  0  0
 30 31  2  0  0  0
 30 63  1  0  0  0
 31 32  1  0  0  0
 31 37  1  0  0  0
 32 33  2  0  0  0
 32 64  1  0  0  0
 33 34  1  0  0  0
 34 35  1  0  0  0
 34 65  1  0  0  0
 35 36  2  0  0  0
 37 38  2  0  0  0
 37 39  1  0  0  0
 39 66  1  0  0  0
 39 67  1  0  0  0
M  END
> <chembl_id>
CHEMBL3982389

> <chembl_pref_name>
None

> <i_m_ct_stereo_status>
1

> <s_m_source_file>
sdf/inactives_sanitized.sdf

> <i_m_source_file_index>
145

> <i_lp_mmshare_version>
49012

> <i_f3d_flags>
0

> <s_epik_input>
bjFbY0hdW2NIXWMoW2NIXWMxMiljM2MoW2NIXWMoW2NIXVtjSF0zKUMoPU8pW05IMl0pW05IXUMoPU8pW0NASF0oW0NIM10pW0NIMl1bQ0gyXVtDSDJdW0NAQEhdMk40W0NIMl1bQ0gyXUMoPVtDSF1DND1PKWM1W2NIXVtjSF1bY0hdYyhDbCljNUY=

> <s_epik_cmdline>
J2VwaWtfcHl0aG9uJywgJy1waHQnLCAnMC41JywgJy1waCcsICc3LjUnLCAnLW50JywgJy1tYScsICcyMDAnLCAnLWltYWUnLCAnPGluZmlsZS5tYWU+JywgJy1vbWFlJywgJzxvdXRmaWxlLm1hZT4n

> <r_lp_tautomer_probability>
1

> <r_epik_Ionization_Penalty>
  0.0001

> <r_epik_Ionization_Penalty_Charging>
  0.0000

> <r_epik_Ionization_Penalty_Neutral>
  0.0001

> <r_epik_State_Penalty>
 -0.0000

> <r_epik_Charging_Adjusted_Penalty>
0

> <i_epik_Tot_Q>
0

> <i_epik_Tot_abs_Q>
0

> <s_lp_Force_Field>
OPLS3e

> <r_lp_Energy>
92.724596

> <b_lp_Chiralities_Consistent>
1

> <s_lp_Variant>
sdf/inactives_sanitized.sdf:145-1

$$$$
sdf/inactives_sanitized.sdf:146
                    3D
 Schrodinger Suite 2020-1.
 37 39  0  0  1  0            999 V2000
   -2.1440   -3.5438    0.1726 C   0  0  0  0  0  0
   -0.7590   -3.5788   -0.0048 C   0  0  0  0  0  0
   -0.0774   -2.3765   -0.2117 C   0  0  0  0  0  0
   -2.8622   -2.3505    0.1452 C   0  0  0  0  0  0
   -2.1836   -1.1172   -0.0665 C   0  0  0  0  0  0
   -0.7645   -1.1346   -0.2449 C   0  0  0  0  0  0
   -0.1243    0.1211   -0.4465 C   0  0  0  0  0  0
   -0.7690    1.3099   -0.4977 N   0  0  0  0  0  0
   -2.1109    1.2999   -0.3285 C   0  0  0  0  0  0
   -2.8524    0.1400   -0.1115 C   0  0  0  0  0  0
    1.2811    0.2180   -0.6588 N   0  0  0  0  0  0
    2.1347    0.9941    0.0167 C   0  0  0  0  0  0
    3.4170    0.9547   -0.3134 N   0  3  0  0  0  0
    1.7699    1.7993    1.0101 N   0  0  0  0  0  0
   -4.5771   -2.4170    0.3732 Cl  0  0  0  0  0  0
   -0.0198   -4.8736    0.0257 C   0  0  0  0  0  0
   -0.5449   -6.0158   -0.5913 C   0  0  0  0  0  0
    0.1474   -7.2237   -0.5645 C   0  0  0  0  0  0
    1.3791   -7.3082    0.0800 C   0  0  0  0  0  0
    1.9391   -6.1851    0.7077 C   0  0  0  0  0  0
    1.2214   -4.9777    0.6708 C   0  0  0  0  0  0
    3.2696   -6.2708    1.3981 C   0  0  0  0  0  0
    3.7449   -5.2219    1.8914 O   0  0  0  0  0  0
    3.8385   -7.3856    1.4421 O   0  5  0  0  0  0
   -2.6812   -4.4663    0.3410 H   0  0  0  0  0  0
    0.9934   -2.3871   -0.3550 H   0  0  0  0  0  0
   -2.6035    2.2605   -0.3709 H   0  0  0  0  0  0
   -3.9231    0.1989    0.0165 H   0  0  0  0  0  0
    3.7869    0.1547   -0.8067 H   0  0  0  0  0  0
    4.0227    1.7250   -0.0693 H   0  0  0  0  0  0
    2.4632    2.3393    1.5068 H   0  0  0  0  0  0
    0.7919    1.8800    1.2504 H   0  0  0  0  0  0
   -1.4951   -5.9720   -1.1037 H   0  0  0  0  0  0
   -0.2694   -8.0959   -1.0462 H   0  0  0  0  0  0
    1.8928   -8.2593    0.0829 H   0  0  0  0  0  0
    1.6272   -4.1004    1.1551 H   0  0  0  0  0  0
    1.7001   -0.4480   -1.2914 H   0  0  0  0  0  0
  1  2  2  0  0  0
  1  4  1  0  0  0
  1 25  1  0  0  0
  2  3  1  0  0  0
  2 16  1  0  0  0
  3  6  2  0  0  0
  3 26  1  0  0  0
  4 15  1  0  0  0
  4  5  2  0  0  0
  5  6  1  0  0  0
  5 10  1  0  0  0
  6  7  1  0  0  0
  7  8  2  0  0  0
  7 11  1  0  0  0
  8  9  1  0  0  0
  9 10  2  0  0  0
  9 27  1  0  0  0
 10 28  1  0  0  0
 11 12  1  0  0  0
 11 37  1  0  0  0
 12 13  2  0  0  0
 12 14  1  0  0  0
 13 29  1  0  0  0
 13 30  1  0  0  0
 14 31  1  0  0  0
 14 32  1  0  0  0
 16 17  2  0  0  0
 16 21  1  0  0  0
 17 18  1  0  0  0
 17 33  1  0  0  0
 18 19  2  0  0  0
 18 34  1  0  0  0
 19 20  1  0  0  0
 19 35  1  0  0  0
 20 21  2  0  0  0
 20 22  1  0  0  0
 21 36  1  0  0  0
 22 23  2  0  0  0
 22 24  1  0  0  0
M  CHG  2  13   1  24  -1
M  END
> <chembl_id>
CHEMBL390394

> <chembl_pref_name>
None

> <s_m_source_file>
sdf/inactives_sanitized.sdf

> <i_m_source_file_index>
146

> <i_lp_mmshare_version>
49012

> <i_m_ct_stereo_status>
1

> <i_f3d_flags>
0

> <s_epik_input>
W2NIXTFbY0hdbmMoTj1DKFtOSDJdKVtOSDJdKWMoYzEyKVtjSF1jKFtjSF1jMkNsKS1jM1tjSF1bY0hdW2NIXWMoW2NIXTMpQyg9TylbT0hd

> <s_epik_cmdline>
J2VwaWtfcHl0aG9uJywgJy1waHQnLCAnMC41JywgJy1waCcsICc3LjUnLCAnLW50JywgJy1tYScsICcyMDAnLCAnLWltYWUnLCAnPGluZmlsZS5tYWU+JywgJy1vbWFlJywgJzxvdXRmaWxlLm1hZT4n

> <r_epik_Ionization_Penalty>
  0.3664

> <r_epik_Ionization_Penalty_Charging>
  0.3664

> <r_epik_Ionization_Penalty_Neutral>
  0.0000

> <r_epik_State_Penalty>
  0.3628

> <r_epik_Charging_Adjusted_Penalty>
0.729121823032511

> <i_epik_Tot_Q>
0

> <i_epik_Tot_abs_Q>
2

> <s_epik_Chemistry_Notes>
This compound has an imine and may undergo hydrolysis.

> <s_lp_Force_Field>
OPLS3e

> <r_lp_Energy>
35.160816

> <b_lp_Chiralities_Consistent>
1

> <s_lp_Variant>
sdf/inactives_sanitized.sdf:146-1

$$$$
sdf/inactives_sanitized.sdf:146
                    3D
 Schrodinger Suite 2020-1.
 36 38  0  0  1  0            999 V2000
   -2.1432   -3.6088    0.0131 C   0  0  0  0  0  0
   -0.7486   -3.5972    0.0489 C   0  0  0  0  0  0
   -0.0885   -2.3729    0.1787 C   0  0  0  0  0  0
   -2.8925   -2.4393    0.1045 C   0  0  0  0  0  0
   -2.2369   -1.1821    0.2349 C   0  0  0  0  0  0
   -0.8055   -1.1448    0.2693 C   0  0  0  0  0  0
   -0.1908    0.1447    0.3873 C   0  0  0  0  0  0
   -0.8943    1.3041    0.5010 N   0  0  0  0  0  0
   -2.2423    1.2370    0.4662 C   0  0  0  0  0  0
   -2.9489    0.0462    0.3345 C   0  0  0  0  0  0
    1.2182    0.1909    0.4660 N   0  0  0  0  0  0
    1.9552    0.9879   -0.2061 C   0  0  0  0  0  0
    3.3578    1.0026   -0.0599 N   0  0  0  0  0  0
    1.5260    1.9404   -1.1628 N   0  0  0  0  0  0
   -4.6188   -2.5666    0.0560 Cl  0  0  0  0  0  0
    0.0205   -4.8693   -0.0522 C   0  0  0  0  0  0
   -0.3275   -5.8406   -0.9985 C   0  0  0  0  0  0
    0.3865   -7.0320   -1.0936 C   0  0  0  0  0  0
    1.4599   -7.2719   -0.2393 C   0  0  0  0  0  0
    1.8382   -6.3228    0.7233 C   0  0  0  0  0  0
    1.1062   -5.1249    0.7979 C   0  0  0  0  0  0
    2.9911   -6.5841    1.6495 C   0  0  0  0  0  0
    3.2794   -5.7054    2.4943 O   0  0  0  0  0  0
    3.6061   -7.6689    1.5316 O   0  5  0  0  0  0
   -2.6637   -4.5514   -0.0807 H   0  0  0  0  0  0
    0.9917   -2.3558    0.1993 H   0  0  0  0  0  0
   -2.7681    2.1768    0.5492 H   0  0  0  0  0  0
   -4.0285    0.0609    0.3133 H   0  0  0  0  0  0
    3.7490    0.4825    0.7121 H   0  0  0  0  0  0
    3.8322    1.8854   -0.1787 H   0  0  0  0  0  0
    0.5364    2.1376   -1.2031 H   0  0  0  0  0  0
    2.0640    2.7901   -1.2478 H   0  0  0  0  0  0
   -1.1546   -5.6721   -1.6728 H   0  0  0  0  0  0
    0.1081   -7.7714   -1.8299 H   0  0  0  0  0  0
    1.9928   -8.2071   -0.3359 H   0  0  0  0  0  0
    1.3721   -4.3783    1.5335 H   0  0  0  0  0  0
  1  2  2  0  0  0
  1  4  1  0  0  0
  1 25  1  0  0  0
  2  3  1  0  0  0
  2 16  1  0  0  0
  3  6  2  0  0  0
  3 26  1  0  0  0
  4 15  1  0  0  0
  4  5  2  0  0  0
  5  6  1  0  0  0
  5 10  1  0  0  0
  6  7  1  0  0  0
  7  8  2  0  0  0
  7 11  1  0  0  0
  8  9  1  0  0  0
  9 10  2  0  0  0
  9 27  1  0  0  0
 10 28  1  0  0  0
 11 12  2  3  0  0
 12 13  1  0  0  0
 12 14  1  0  0  0
 13 29  1  0  0  0
 13 30  1  0  0  0
 14 31  1  0  0  0
 14 32  1  0  0  0
 16 17  2  0  0  0
 16 21  1  0  0  0
 17 18  1  0  0  0
 17 33  1  0  0  0
 18 19  2  0  0  0
 18 34  1  0  0  0
 19 20  1  0  0  0
 19 35  1  0  0  0
 20 21  2  0  0  0
 20 22  1  0  0  0
 21 36  1  0  0  0
 22 23  2  0  0  0
 22 24  1  0  0  0
M  CHG  1  24  -1
M  END
> <chembl_id>
CHEMBL390394

> <chembl_pref_name>
None

> <s_m_source_file>
sdf/inactives_sanitized.sdf

> <i_m_source_file_index>
146

> <i_lp_mmshare_version>
49012

> <i_m_ct_stereo_status>
1

> <i_f3d_flags>
0

> <s_epik_input>
W2NIXTFbY0hdbmMoTj1DKFtOSDJdKVtOSDJdKWMoYzEyKVtjSF1jKFtjSF1jMkNsKS1jM1tjSF1bY0hdW2NIXWMoW2NIXTMpQyg9TylbT0hd

> <s_epik_cmdline>
J2VwaWtfcHl0aG9uJywgJy1waHQnLCAnMC41JywgJy1waCcsICc3LjUnLCAnLW50JywgJy1tYScsICcyMDAnLCAnLWltYWUnLCAnPGluZmlsZS5tYWU+JywgJy1vbWFlJywgJzxvdXRmaWxlLm1hZT4n

> <r_epik_Ionization_Penalty>
  0.4596

> <r_epik_Ionization_Penalty_Charging>
  0.0002

> <r_epik_Ionization_Penalty_Neutral>
  0.4594

> <r_epik_State_Penalty>
  0.4628

> <r_epik_Charging_Adjusted_Penalty>
0.463036980203613

> <i_epik_Tot_Q>
-1

> <i_epik_Tot_abs_Q>
1

> <s_epik_Chemistry_Notes>
This compound has an imine and may undergo hydrolysis.

> <s_lp_Force_Field>
OPLS3e

> <r_lp_Energy>
42.182719

> <b_lp_Chiralities_Consistent>
1

> <s_lp_Variant>
sdf/inactives_sanitized.sdf:146-2

$$$$
sdf/inactives_sanitized.sdf:147
                    3D
 Schrodinger Suite 2020-1.
 63 67  0  0  1  0            999 V2000
   -0.0756    2.8608   -0.0978 C   0  0  0  0  0  0
   -0.7484    4.0773   -0.0713 C   0  0  0  0  0  0
   -2.1380    4.1306   -0.0283 C   0  0  0  0  0  0
   -0.7754    1.6453   -0.0809 C   0  0  0  0  0  0
   -2.1845    1.6623   -0.0385 C   0  0  0  0  0  0
   -2.8495    2.9229   -0.0126 C   0  0  0  0  0  0
   -4.5936    2.7308    0.0412 S   0  0  0  0  0  0
   -4.4401    0.9785    0.0188 C   0  0  0  0  0  0
   -3.1120    0.5809   -0.0146 C   0  0  0  0  0  0
   -5.5551    0.1623    0.0547 C   0  0  0  0  0  0
   -6.6585    0.5431   -0.5759 N   0  0  0  0  0  0
   -5.4810   -0.9862    0.7147 N   0  3  0  0  0  0
   -0.2090    0.3831   -0.0964 O   0  0  0  0  0  0
    1.2161    0.2257   -0.1301 C   0  0  2  0  0  0
    1.5234   -1.2370   -0.5084 C   0  0  0  0  0  0
    1.8418    0.5531    1.2325 C   0  0  0  0  0  0
    2.6785   -1.4310   -1.1834 N   0  0  0  0  0  0
    3.2685   -2.6317   -1.6216 C   0  0  0  0  0  0
    0.7291   -2.1277   -0.1995 O   0  0  0  0  0  0
    3.1379    1.0774    1.2854 C   0  0  0  0  0  0
    3.7296    1.3580    2.5140 C   0  0  0  0  0  0
    3.0283    1.1069    3.6909 C   0  0  0  0  0  0
    1.7420    0.5743    3.6509 C   0  0  0  0  0  0
    1.1499    0.2934    2.4226 C   0  0  0  0  0  0
    4.3125   -2.5008   -2.5386 C   0  0  0  0  0  0
    4.9732   -3.6281   -3.0183 C   0  0  0  0  0  0
    4.6162   -4.9055   -2.5710 C   0  0  0  0  0  0
    3.5589   -5.0350   -1.6605 C   0  0  0  0  0  0
    2.8946   -3.9100   -1.1806 C   0  0  0  0  0  0
    5.3427   -6.1155   -3.1213 C   0  0  0  0  0  0
    5.6606   -7.1452   -2.2912 N   0  0  0  0  0  0
    5.6369   -6.1278   -4.3196 O   0  0  0  0  0  0
    5.6128   -7.1040   -0.8205 C   0  0  0  0  0  0
    6.6944   -8.1081   -0.4269 C   0  0  0  0  0  0
    6.6385   -9.1479   -1.5284 C   0  0  0  0  0  0
    6.3855   -8.3245   -2.7891 C   0  0  0  0  0  0
    1.0031    2.8797   -0.1260 H   0  0  0  0  0  0
   -0.1813    4.9968   -0.0829 H   0  0  0  0  0  0
   -2.6502    5.0817   -0.0074 H   0  0  0  0  0  0
   -2.8033   -0.4543   -0.0286 H   0  0  0  0  0  0
   -7.4765   -0.0480   -0.5612 H   0  0  0  0  0  0
   -6.6719    1.4217   -1.0729 H   0  0  0  0  0  0
   -6.2832   -1.5976    0.7535 H   0  0  0  0  0  0
    1.6374    0.8740   -0.9026 H   0  0  0  0  0  0
    3.1830   -0.5990   -1.4521 H   0  0  0  0  0  0
    3.6878    1.2683    0.3751 H   0  0  0  0  0  0
    4.7288    1.7658    2.5549 H   0  0  0  0  0  0
    3.4878    1.3231    4.6440 H   0  0  0  0  0  0
    1.2082    0.3765    4.5688 H   0  0  0  0  0  0
    0.1556   -0.1286    2.3984 H   0  0  0  0  0  0
    4.6166   -1.5252   -2.8908 H   0  0  0  0  0  0
    5.7739   -3.4977   -3.7328 H   0  0  0  0  0  0
    3.2304   -6.0068   -1.3232 H   0  0  0  0  0  0
    2.1047   -4.0633   -0.4632 H   0  0  0  0  0  0
    5.8655   -6.1295   -0.3997 H   0  0  0  0  0  0
    4.6626   -7.5004   -0.4604 H   0  0  0  0  0  0
    7.6718   -7.6215   -0.4214 H   0  0  0  0  0  0
    6.5362   -8.5221    0.5695 H   0  0  0  0  0  0
    7.5400   -9.7572   -1.5999 H   0  0  0  0  0  0
    5.8016   -9.8263   -1.3537 H   0  0  0  0  0  0
    7.3432   -8.0176   -3.2130 H   0  0  0  0  0  0
    5.8079   -8.8855   -3.5251 H   0  0  0  0  0  0
   -4.6228   -1.2397    1.1820 H   0  0  0  0  0  0
  1  4  2  0  0  0
  1  2  1  0  0  0
  1 37  1  0  0  0
  2  3  2  0  0  0
  2 38  1  0  0  0
  3  6  1  0  0  0
  3 39  1  0  0  0
  4 13  1  0  0  0
  4  5  1  0  0  0
  5  9  1  0  0  0
  5  6  2  0  0  0
  6  7  1  0  0  0
  7  8  1  0  0  0
  8  9  2  0  0  0
  8 10  1  0  0  0
  9 40  1  0  0  0
 10 11  1  0  0  0
 10 12  2  0  0  0
 11 41  1  0  0  0
 11 42  1  0  0  0
 12 43  1  0  0  0
 12 63  1  0  0  0
 13 14  1  0  0  0
 14 15  1  0  0  0
 14 16  1  0  0  0
 14 44  1  0  0  0
 15 19  2  0  0  0
 15 17  1  0  0  0
 16 20  2  0  0  0
 16 24  1  0  0  0
 17 18  1  0  0  0
 17 45  1  0  0  0
 18 25  2  0  0  0
 18 29  1  0  0  0
 20 21  1  0  0  0
 20 46  1  0  0  0
 21 22  2  0  0  0
 21 47  1  0  0  0
 22 23  1  0  0  0
 22 48  1  0  0  0
 23 24  2  0  0  0
 23 49  1  0  0  0
 24 50  1  0  0  0
 25 26  1  0  0  0
 25 51  1  0  0  0
 26 27  2  0  0  0
 26 52  1  0  0  0
 27 28  1  0  0  0
 27 30  1  0  0  0
 28 29  2  0  0  0
 28 53  1  0  0  0
 29 54  1  0  0  0
 30 31  1  0  0  0
 30 32  2  0  0  0
 31 33  1  0  0  0
 31 36  1  0  0  0
 33 34  1  0  0  0
 33 55  1  0  0  0
 33 56  1  0  0  0
 34 35  1  0  0  0
 34 57  1  0  0  0
 34 58  1  0  0  0
 35 36  1  0  0  0
 35 59  1  0  0  0
 35 60  1  0  0  0
 36 61  1  0  0  0
 36 62  1  0  0  0
M  CHG  1  12   1
M  END
> <chembl_id>
CHEMBL599614

> <chembl_pref_name>
None

> <s_m_source_file>
sdf/inactives_sanitized.sdf

> <i_m_source_file_index>
147

> <i_lp_mmshare_version>
49012

> <i_m_ct_stereo_status>
1

> <i_f3d_flags>
0

> <s_epik_input>
W0hdXE49QyhbTkgyXSlcYyhbY0hdMSlzYyhjMTIpW2NIXVtjSF1bY0hdYzJPW0NAQEhdKGMzW2NIXVtjSF1bY0hdW2NIXVtjSF0zKUMoPU8pW05IXWM0W2NIXVtjSF1jKFtjSF1bY0hdNClDKD1PKU41W0NIMl1bQ0gyXVtDSDJdW0NIMl01

> <s_epik_cmdline>
J2VwaWtfcHl0aG9uJywgJy1waHQnLCAnMC41JywgJy1waCcsICc3LjUnLCAnLW50JywgJy1tYScsICcyMDAnLCAnLWltYWUnLCAnPGluZmlsZS5tYWU+JywgJy1vbWFlJywgJzxvdXRmaWxlLm1hZT4n

> <r_lp_tautomer_probability>
1

> <r_epik_Ionization_Penalty>
  0.0095

> <r_epik_Ionization_Penalty_Charging>
  0.0095

> <r_epik_Ionization_Penalty_Neutral>
  0.0000

> <r_epik_State_Penalty>
 -0.0000

> <r_epik_Charging_Adjusted_Penalty>
0.00945881282357717

> <i_epik_Tot_Q>
1

> <i_epik_Tot_abs_Q>
1

> <s_epik_Chemistry_Notes>
This compound has an imine and may undergo hydrolysis.

> <s_lp_Force_Field>
OPLS3e

> <r_lp_Energy>
53.53963

> <b_lp_Chiralities_Consistent>
1

> <s_lp_Variant>
sdf/inactives_sanitized.sdf:147-1

$$$$
sdf/inactives_sanitized.sdf:148
                    3D
 Schrodinger Suite 2020-1.
 63 67  0  0  1  0            999 V2000
   -0.9732    1.2875    0.0320 C   0  0  0  0  0  0
   -0.0045    0.2914   -0.1133 C   0  0  0  0  0  0
   -0.3861   -1.0479   -0.1343 C   0  0  0  0  0  0
   -1.7233   -1.4164   -0.0132 C   0  0  0  0  0  0
   -2.3427    0.9505    0.1542 C   0  0  0  0  0  0
   -2.7330   -0.4273    0.1327 C   0  0  0  0  0  0
   -4.1229   -0.7294    0.2592 C   0  0  0  0  0  0
   -5.0136    0.2692    0.3916 N   0  3  0  0  0  0
   -4.6811    1.5707    0.4148 C   0  0  0  0  0  0
   -3.3447    1.9474    0.2974 C   0  0  0  0  0  0
   -4.6185   -2.0529    0.2517 N   0  0  0  0  0  0
    1.3573    0.5993   -0.2447 N   0  0  0  0  0  0
    1.9946    1.9076   -0.2447 C   0  0  1  0  0  0
    3.5316    1.7515   -0.1015 C   0  0  0  0  0  0
    4.1218    0.6518   -0.6145 N   0  0  0  0  0  0
    4.1696    2.6995    0.3590 O   0  0  0  0  0  0
    1.7017    2.7697   -1.4651 C   0  0  0  0  0  0
    1.8211    4.1605   -1.3614 C   0  0  0  0  0  0
    1.5977    4.9759   -2.4669 C   0  0  0  0  0  0
    1.2456    4.4133   -3.6956 C   0  0  0  0  0  0
    1.1156    3.0272   -3.8082 C   0  0  0  0  0  0
    1.3477    2.2116   -2.7032 C   0  0  0  0  0  0
    5.5370    0.5706   -0.9859 C   0  0  0  0  0  0
    5.7790    0.9776   -2.4413 C   0  0  0  0  0  0
    6.5107    0.1439   -3.2940 C   0  0  0  0  0  0
    6.6568    0.4675   -4.6439 C   0  0  0  0  0  0
    6.0546    1.6157   -5.1601 C   0  0  0  0  0  0
    5.3146    2.4567   -4.3163 C   0  0  0  0  0  0
    5.2154    2.1512   -2.9600 C   0  0  0  0  0  0
    4.6508    3.6119   -4.7557 N   0  0  0  0  0  0
    3.9598    3.7504   -5.9054 C   0  0  0  0  0  0
    3.2600    5.1001   -6.1187 C   0  0  0  0  0  0
    3.8431    2.8690   -6.7592 O   0  0  0  0  0  0
    0.9598    5.3237   -4.8883 C   0  0  0  0  0  0
    1.7151    4.9955   -6.1980 C   0  0  0  0  0  0
   -0.6949    2.3314    0.0483 H   0  0  0  0  0  0
    0.3607   -1.8214   -0.2456 H   0  0  0  0  0  0
   -1.9913   -2.4627   -0.0323 H   0  0  0  0  0  0
   -5.5007    2.2660    0.5266 H   0  0  0  0  0  0
   -3.0658    2.9915    0.3142 H   0  0  0  0  0  0
   -3.9828   -2.8317    0.1545 H   0  0  0  0  0  0
   -5.6093   -2.2256    0.3447 H   0  0  0  0  0  0
    1.9771   -0.1868   -0.3748 H   0  0  0  0  0  0
    1.6220    2.4259    0.6416 H   0  0  0  0  0  0
    3.5308   -0.0792   -0.9819 H   0  0  0  0  0  0
    2.0985    4.6132   -0.4203 H   0  0  0  0  0  0
    1.6950    6.0465   -2.3611 H   0  0  0  0  0  0
    0.8376    2.5775   -4.7501 H   0  0  0  0  0  0
    1.2587    1.1417   -2.8212 H   0  0  0  0  0  0
    6.1552    1.2044   -0.3466 H   0  0  0  0  0  0
    5.8618   -0.4582   -0.8246 H   0  0  0  0  0  0
    6.9559   -0.7657   -2.9177 H   0  0  0  0  0  0
    7.2231   -0.1816   -5.2954 H   0  0  0  0  0  0
    6.1679    1.8430   -6.2100 H   0  0  0  0  0  0
    4.6541    2.8134   -2.3184 H   0  0  0  0  0  0
    4.5670    4.3522   -4.0745 H   0  0  0  0  0  0
    3.5624    5.8341   -5.3692 H   0  0  0  0  0  0
    3.6369    5.4783   -7.0702 H   0  0  0  0  0  0
   -0.1136    5.2827   -5.0787 H   0  0  0  0  0  0
    1.1666    6.3605   -4.6176 H   0  0  0  0  0  0
    1.3961    4.0245   -6.5815 H   0  0  0  0  0  0
    1.3730    5.7104   -6.9478 H   0  0  0  0  0  0
   -5.9901    0.0258    0.4777 H   0  0  0  0  0  0
  1  5  2  0  0  0
  1  2  1  0  0  0
  1 36  1  0  0  0
  2  3  2  0  0  0
  2 12  1  0  0  0
  3  4  1  0  0  0
  3 37  1  0  0  0
  4  6  2  0  0  0
  4 38  1  0  0  0
  5  6  1  0  0  0
  5 10  1  0  0  0
  6  7  1  0  0  0
  7  8  2  0  0  0
  7 11  1  0  0  0
  8  9  1  0  0  0
  8 63  1  0  0  0
  9 10  2  0  0  0
  9 39  1  0  0  0
 10 40  1  0  0  0
 11 41  1  0  0  0
 11 42  1  0  0  0
 12 13  1  0  0  0
 12 43  1  0  0  0
 13 14  1  0  0  0
 13 17  1  0  0  0
 13 44  1  0  0  0
 14 15  1  0  0  0
 14 16  2  0  0  0
 15 23  1  0  0  0
 15 45  1  0  0  0
 17 18  2  0  0  0
 17 22  1  0  0  0
 18 19  1  0  0  0
 18 46  1  0  0  0
 19 20  2  0  0  0
 19 47  1  0  0  0
 20 21  1  0  0  0
 20 34  1  0  0  0
 21 22  2  0  0  0
 21 48  1  0  0  0
 22 49  1  0  0  0
 23 24  1  0  0  0
 23 50  1  0  0  0
 23 51  1  0  0  0
 24 25  2  0  0  0
 24 29  1  0  0  0
 25 26  1  0  0  0
 25 52  1  0  0  0
 26 27  2  0  0  0
 26 53  1  0  0  0
 27 28  1  0  0  0
 27 54  1  0  0  0
 28 29  2  0  0  0
 28 30  1  0  0  0
 29 55  1  0  0  0
 30 31  1  0  0  0
 30 56  1  0  0  0
 31 32  1  0  0  0
 31 33  2  0  0  0
 32 35  1  0  0  0
 32 57  1  0  0  0
 32 58  1  0  0  0
 34 35  1  0  0  0
 34 59  1  0  0  0
 34 60  1  0  0  0
 35 61  1  0  0  0
 35 62  1  0  0  0
M  CHG  1   8   1
M  END
> <chembl_id>
CHEMBL3594305

> <chembl_pref_name>
None

> <i_m_ct_stereo_status>
1

> <s_m_source_file>
sdf/inactives_sanitized.sdf

> <i_m_source_file_index>
148

> <i_lp_mmshare_version>
49012

> <i_f3d_flags>
0

> <s_epik_input>
W2NIXTFbY0hdbmMoW05IMl0pYyhjMTIpW2NIXVtjSF1jKFtjSF0yKVtOSF1bQ0BIXTNDKD1PKVtOSF1bQ0gyXWMoW2NIXTQpW2NIXVtjSF1bY0hdYzRbTkhdQyg9TylbQ0gyXVtDSDJdW0NIMl1jKFtjSF1bY0hdYzM1KVtjSF1bY0hdNQ==

> <s_epik_cmdline>
J2VwaWtfcHl0aG9uJywgJy1waHQnLCAnMC41JywgJy1waCcsICc3LjUnLCAnLW50JywgJy1tYScsICcyMDAnLCAnLWltYWUnLCAnPGluZmlsZS5tYWU+JywgJy1vbWFlJywgJzxvdXRmaWxlLm1hZT4n

> <r_epik_Ionization_Penalty>
  0.0146

> <r_epik_Ionization_Penalty_Charging>
  0.0146

> <r_epik_Ionization_Penalty_Neutral>
  0.0000

> <r_epik_State_Penalty>
  0.0115

> <r_epik_Charging_Adjusted_Penalty>
0.0260960353672975

> <i_epik_Tot_Q>
1

> <i_epik_Tot_abs_Q>
1

> <s_lp_Force_Field>
OPLS3e

> <r_lp_Energy>
64.211586

> <b_lp_Chiralities_Consistent>
1

> <s_lp_Variant>
sdf/inactives_sanitized.sdf:148-1

$$$$
sdf/inactives_sanitized.sdf:149
                    3D
 Schrodinger Suite 2020-1.
 47 50  0  0  1  0            999 V2000
   -0.2217    2.2256    1.2891 N   0  0  0  0  0  0
   -1.2483    3.2065   -0.3869 C   0  0  0  0  0  0
   -1.8787    4.2443   -1.0834 C   0  0  0  0  0  0
   -0.9141    4.6625    1.5713 C   0  0  0  0  0  0
   -1.5514    5.6876    0.8585 C   0  0  0  0  0  0
   -2.0266    5.4846   -0.4519 C   0  0  0  0  0  0
   -0.7751    3.4322    0.9269 C   0  0  0  0  0  0
   -0.3861    1.3670    0.2272 C   0  0  0  0  0  0
   -0.9948    1.9226   -0.7918 N   0  0  0  0  0  0
    0.1305   -0.0596    0.2362 C   0  0  0  0  0  0
    1.6534   -0.1692   -0.0132 C   0  0  0  0  0  0
    2.1439    0.5752   -1.1753 N   0  0  0  0  0  0
    1.8271    0.3160   -2.4580 C   0  0  0  0  0  0
    2.3962    1.2789   -3.4711 C   0  0  0  0  0  0
    1.1106   -0.6235   -2.8074 O   0  0  0  0  0  0
    3.7524    1.6312   -3.4013 C   0  0  0  0  0  0
    4.3115    2.5171   -4.3199 C   0  0  0  0  0  0
    3.5225    3.0818   -5.3285 C   0  0  0  0  0  0
    2.1631    2.7499   -5.3925 C   0  0  0  0  0  0
    1.5957    1.8629   -4.4748 C   0  0  0  0  0  0
   -2.7131    6.6071   -1.2200 C   0  0  0  0  0  0
   -1.7196    7.0374    1.5451 C   0  0  0  0  0  0
   -0.1053    1.5527   -4.6145 Cl  0  0  0  0  0  0
    4.0906    3.9770   -6.2687 N   0  0  0  0  0  0
    3.3846    4.9707   -6.8404 N   0  0  0  0  0  0
    4.2647    5.5391   -7.6261 C   0  0  0  0  0  0
    5.4864    4.8784   -7.5148 C   0  0  0  0  0  0
    5.3769    3.8937   -6.6586 N   0  0  0  0  0  0
    0.2318    1.9666    2.1532 H   0  0  0  0  0  0
   -2.2428    4.0862   -2.0882 H   0  0  0  0  0  0
   -0.5476    4.8168    2.5757 H   0  0  0  0  0  0
   -0.1087   -0.5394    1.1858 H   0  0  0  0  0  0
   -0.3950   -0.6555   -0.5115 H   0  0  0  0  0  0
    2.1834    0.2319    0.8515 H   0  0  0  0  0  0
    1.9500   -1.2163   -0.0978 H   0  0  0  0  0  0
    2.7443    1.3631   -0.9803 H   0  0  0  0  0  0
    4.3920    1.2088   -2.6389 H   0  0  0  0  0  0
    5.3612    2.7598   -4.2383 H   0  0  0  0  0  0
    1.5341    3.1811   -6.1584 H   0  0  0  0  0  0
   -2.0452    7.4634   -1.3179 H   0  0  0  0  0  0
   -3.6033    6.9429   -0.6873 H   0  0  0  0  0  0
   -3.0155    6.3007   -2.2224 H   0  0  0  0  0  0
   -2.7744    7.3096    1.5920 H   0  0  0  0  0  0
   -1.2038    7.8163    0.9828 H   0  0  0  0  0  0
   -1.3287    7.0391    2.5634 H   0  0  0  0  0  0
    4.0344    6.3904   -8.2500 H   0  0  0  0  0  0
    6.4057    5.1077   -8.0336 H   0  0  0  0  0  0
  1  7  1  0  0  0
  1  8  1  0  0  0
  1 29  1  0  0  0
  2  3  2  0  0  0
  2  7  1  0  0  0
  2  9  1  0  0  0
  3  6  1  0  0  0
  3 30  1  0  0  0
  4  7  2  0  0  0
  4  5  1  0  0  0
  4 31  1  0  0  0
  5  6  2  0  0  0
  5 22  1  0  0  0
  6 21  1  0  0  0
  8  9  2  0  0  0
  8 10  1  0  0  0
 10 11  1  0  0  0
 10 32  1  0  0  0
 10 33  1  0  0  0
 11 12  1  0  0  0
 11 34  1  0  0  0
 11 35  1  0  0  0
 12 13  1  0  0  0
 12 36  1  0  0  0
 13 14  1  0  0  0
 13 15  2  0  0  0
 14 16  2  0  0  0
 14 20  1  0  0  0
 16 17  1  0  0  0
 16 37  1  0  0  0
 17 18  2  0  0  0
 17 38  1  0  0  0
 18 19  1  0  0  0
 18 24  1  0  0  0
 19 20  2  0  0  0
 19 39  1  0  0  0
 20 23  1  0  0  0
 21 40  1  0  0  0
 21 41  1  0  0  0
 21 42  1  0  0  0
 22 43  1  0  0  0
 22 44  1  0  0  0
 22 45  1  0  0  0
 24 25  1  0  0  0
 24 28  1  0  0  0
 25 26  2  0  0  0
 26 27  1  0  0  0
 26 46  1  0  0  0
 27 28  2  0  0  0
 27 47  1  0  0  0
M  END
> <chembl_id>
CHEMBL3423043

> <chembl_pref_name>
None

> <s_m_source_file>
sdf/inactives_sanitized.sdf

> <i_m_source_file_index>
149

> <i_lp_mmshare_version>
49012

> <i_m_ct_stereo_status>
1

> <i_f3d_flags>
0

> <s_epik_input>
W2NIXTFjKFtDSDNdKWMoW0NIM10pW2NIXWMoYzEyKVtuSF1jKG4yKVtDSDJdW0NIMl1bTkhdQyg9TyljM1tjSF1bY0hdYyhbY0hdYzNDbCktbjRuW2NIXVtjSF1uNA==

> <s_epik_cmdline>
J2VwaWtfcHl0aG9uJywgJy1waHQnLCAnMC41JywgJy1waCcsICc3LjUnLCAnLW50JywgJy1tYScsICcyMDAnLCAnLWltYWUnLCAnPGluZmlsZS5tYWU+JywgJy1vbWFlJywgJzxvdXRmaWxlLm1hZT4n

> <r_lp_tautomer_probability>
1

> <r_epik_Ionization_Penalty>
  0.0235

> <r_epik_Ionization_Penalty_Charging>
  0.0000

> <r_epik_Ionization_Penalty_Neutral>
  0.0235

> <r_epik_State_Penalty>
  0.0190

> <r_epik_Charging_Adjusted_Penalty>
0.0189995681741242

> <i_epik_Tot_Q>
0

> <i_epik_Tot_abs_Q>
0

> <s_lp_Force_Field>
OPLS3e

> <r_lp_Energy>
25.615229

> <b_lp_Chiralities_Consistent>
1

> <s_lp_Variant>
sdf/inactives_sanitized.sdf:149-1

$$$$
sdf/inactives_sanitized.sdf:150
                    3D
 Schrodinger Suite 2020-1.
 47 50  0  0  1  0            999 V2000
   -1.2876    1.8809   -0.8651 N   0  0  0  0  0  0
   -1.0107    3.2922    0.9287 C   0  0  0  0  0  0
   -1.0947    4.4958    1.6333 C   0  0  0  0  0  0
   -2.0670    4.2520   -1.0390 C   0  0  0  0  0  0
   -2.1505    5.4546   -0.3373 C   0  0  0  0  0  0
   -1.6782    5.5967    0.9789 C   0  0  0  0  0  0
   -1.4873    3.1527   -0.3963 C   0  0  0  0  0  0
   -0.7032    1.2510    0.1247 C   0  0  0  0  0  0
   -0.5132    2.0459    1.2315 N   0  0  0  0  0  0
   -0.2240   -0.1866    0.0579 C   0  0  0  0  0  0
    1.3050   -0.3261   -0.1142 C   0  0  0  0  0  0
    1.8334    0.3575   -1.2984 N   0  0  0  0  0  0
    2.3269    1.6125   -1.3285 C   0  0  0  0  0  0
    2.7616    2.1414   -2.6799 C   0  0  0  0  0  0
    2.4250    2.3130   -0.3180 O   0  0  0  0  0  0
    2.4133    1.4878   -3.8731 C   0  0  0  0  0  0
    2.8095    2.0012   -5.1048 C   0  0  0  0  0  0
    3.5610    3.1785   -5.1635 C   0  0  0  0  0  0
    3.9133    3.8371   -3.9820 C   0  0  0  0  0  0
    3.5146    3.3217   -2.7522 C   0  0  0  0  0  0
    3.9601    3.7027   -6.4123 N   0  0  0  0  0  0
    4.1844    3.0387   -7.5989 C   0  0  0  0  0  0
    4.5456    3.8512   -8.5601 N   0  0  0  0  0  0
    4.5689    5.1306   -8.0149 N   0  0  0  0  0  0
    4.2230    5.0106   -6.7577 C   0  0  0  0  0  0
   -1.7912    6.8852    1.6677 C   0  0  0  0  0  0
   -1.7239    8.0084    0.9619 N   0  3  0  0  0  0
   -1.9576    6.9038    2.9853 N   0  0  0  0  0  0
   -0.7152    4.5796    2.6408 H   0  0  0  0  0  0
   -2.4401    4.1749   -2.0500 H   0  0  0  0  0  0
   -2.6051    6.2996   -0.8331 H   0  0  0  0  0  0
   -0.5270   -0.7189    0.9603 H   0  0  0  0  0  0
   -0.7200   -0.7160   -0.7573 H   0  0  0  0  0  0
    1.8107    0.0338    0.7847 H   0  0  0  0  0  0
    1.5634   -1.3821   -0.1992 H   0  0  0  0  0  0
    1.8354   -0.1768   -2.1552 H   0  0  0  0  0  0
    1.8244    0.5820   -3.8664 H   0  0  0  0  0  0
    2.5181    1.4816   -6.0060 H   0  0  0  0  0  0
    4.4991    4.7447   -4.0032 H   0  0  0  0  0  0
    3.8012    3.8529   -1.8555 H   0  0  0  0  0  0
    4.0690    1.9671   -7.6676 H   0  0  0  0  0  0
    4.1281    5.8072   -6.0345 H   0  0  0  0  0  0
   -1.5908    7.9627   -0.0379 H   0  0  0  0  0  0
   -2.0369    7.7851    3.4711 H   0  0  0  0  0  0
   -2.0103    6.0337    3.4947 H   0  0  0  0  0  0
   -1.8000    8.9016    1.4262 H   0  0  0  0  0  0
   -0.0673    1.7255    2.0791 H   0  0  0  0  0  0
  1  7  1  0  0  0
  1  8  2  0  0  0
  2  3  2  0  0  0
  2  7  1  0  0  0
  2  9  1  0  0  0
  3  6  1  0  0  0
  3 29  1  0  0  0
  4  7  2  0  0  0
  4  5  1  0  0  0
  4 30  1  0  0  0
  5  6  2  0  0  0
  5 31  1  0  0  0
  6 26  1  0  0  0
  8  9  1  0  0  0
  8 10  1  0  0  0
  9 47  1  0  0  0
 10 11  1  0  0  0
 10 32  1  0  0  0
 10 33  1  0  0  0
 11 12  1  0  0  0
 11 34  1  0  0  0
 11 35  1  0  0  0
 12 13  1  0  0  0
 12 36  1  0  0  0
 13 14  1  0  0  0
 13 15  2  0  0  0
 14 16  2  0  0  0
 14 20  1  0  0  0
 16 17  1  0  0  0
 16 37  1  0  0  0
 17 18  2  0  0  0
 17 38  1  0  0  0
 18 19  1  0  0  0
 18 21  1  0  0  0
 19 20  2  0  0  0
 19 39  1  0  0  0
 20 40  1  0  0  0
 21 22  1  0  0  0
 21 25  1  0  0  0
 22 23  2  0  0  0
 22 41  1  0  0  0
 23 24  1  0  0  0
 24 25  2  0  0  0
 25 42  1  0  0  0
 26 27  2  0  0  0
 26 28  1  0  0  0
 27 43  1  0  0  0
 27 46  1  0  0  0
 28 44  1  0  0  0
 28 45  1  0  0  0
M  CHG  1  27   1
M  END
> <chembl_id>
CHEMBL3423031

> <chembl_pref_name>
None

> <s_m_source_file>
sdf/inactives_sanitized.sdf

> <i_m_source_file_index>
150

> <i_lp_mmshare_version>
49012

> <i_m_ct_stereo_status>
1

> <i_f3d_flags>
0

> <s_epik_input>
W0hdXE49QyhbTkgyXSlcYyhbY0hdMSlbY0hdW2NIXWMoYzEyKVtuSF1jKG4yKVtDSDJdW0NIMl1bTkhdQyg9TyljM1tjSF1bY0hdYyhbY0hdW2NIXTMpLW40W2NIXW5uW2NIXTQ=

> <s_epik_cmdline>
J2VwaWtfcHl0aG9uJywgJy1waHQnLCAnMC41JywgJy1waCcsICc3LjUnLCAnLW50JywgJy1tYScsICcyMDAnLCAnLWltYWUnLCAnPGluZmlsZS5tYWU+JywgJy1vbWFlJywgJzxvdXRmaWxlLm1hZT4n

> <r_lp_tautomer_probability>
1

> <r_epik_Ionization_Penalty>
  0.0088

> <r_epik_Ionization_Penalty_Charging>
  0.0010

> <r_epik_Ionization_Penalty_Neutral>
  0.0078

> <r_epik_State_Penalty>
  0.2898

> <r_epik_Charging_Adjusted_Penalty>
0.290743966209876

> <i_epik_Tot_Q>
1

> <i_epik_Tot_abs_Q>
1

> <s_epik_Chemistry_Notes>
This compound has an imine and may undergo hydrolysis.

> <s_lp_Force_Field>
OPLS3e

> <r_lp_Energy>
23.757832

> <b_lp_Chiralities_Consistent>
1

> <s_lp_Variant>
sdf/inactives_sanitized.sdf:150-1

$$$$
sdf/inactives_sanitized.sdf:150
                    3D
 Schrodinger Suite 2020-1.
 47 50  0  0  1  0            999 V2000
   -0.3303    2.1959    1.2033 N   0  0  0  0  0  0
   -1.3232    3.3232   -0.3992 C   0  0  0  0  0  0
   -1.8794    4.4389   -1.0390 C   0  0  0  0  0  0
   -0.7684    4.6787    1.5776 C   0  0  0  0  0  0
   -1.3298    5.7689    0.9086 C   0  0  0  0  0  0
   -1.8840    5.6802   -0.3801 C   0  0  0  0  0  0
   -0.7773    3.4605    0.8985 C   0  0  0  0  0  0
   -0.6099    1.3934    0.1214 C   0  0  0  0  0  0
   -1.2090    2.0350   -0.8518 N   0  0  0  0  0  0
   -0.2041   -0.0671    0.0576 C   0  0  0  0  0  0
    1.3125   -0.2850   -0.1423 C   0  0  0  0  0  0
    1.8533    0.3685   -1.3380 N   0  0  0  0  0  0
    2.4086    1.5969   -1.3813 C   0  0  0  0  0  0
    2.8498    2.0973   -2.7414 C   0  0  0  0  0  0
    2.5584    2.2951   -0.3757 O   0  0  0  0  0  0
    2.4477    1.4597   -3.9266 C   0  0  0  0  0  0
    2.8528    1.9461   -5.1663 C   0  0  0  0  0  0
    3.6676    3.0795   -5.2407 C   0  0  0  0  0  0
    4.0748    3.7215   -4.0678 C   0  0  0  0  0  0
    3.6659    3.2340   -2.8300 C   0  0  0  0  0  0
    4.0755    3.5767   -6.4971 N   0  0  0  0  0  0
    3.4320    3.4891   -7.7123 C   0  0  0  0  0  0
    4.1069    4.0703   -8.6722 N   0  0  0  0  0  0
    5.2660    4.5792   -8.0951 N   0  0  0  0  0  0
    5.2175    4.2760   -6.8221 C   0  0  0  0  0  0
   -2.4560    6.8634   -1.0294 C   0  0  0  0  0  0
   -2.9898    7.8229   -0.2822 N   0  3  0  0  0  0
   -2.4302    6.9537   -2.3542 N   0  0  0  0  0  0
    0.1377    1.8685    2.0361 H   0  0  0  0  0  0
   -2.3039    4.3390   -2.0269 H   0  0  0  0  0  0
   -0.3468    4.7825    2.5668 H   0  0  0  0  0  0
   -1.3224    6.7233    1.4140 H   0  0  0  0  0  0
   -0.5161   -0.5769    0.9698 H   0  0  0  0  0  0
   -0.7411   -0.5770   -0.7440 H   0  0  0  0  0  0
    1.8530    0.0495    0.7460 H   0  0  0  0  0  0
    1.5147   -1.3531   -0.2301 H   0  0  0  0  0  0
    1.8131   -0.1673   -2.1927 H   0  0  0  0  0  0
    1.8127    0.5856   -3.9068 H   0  0  0  0  0  0
    2.5315    1.4326   -6.0610 H   0  0  0  0  0  0
    4.6988    4.6027   -4.1035 H   0  0  0  0  0  0
    3.9923    3.7533   -1.9397 H   0  0  0  0  0  0
    2.4760    2.9943   -7.8012 H   0  0  0  0  0  0
    5.9587    4.5109   -6.0722 H   0  0  0  0  0  0
   -3.3877    8.6401   -0.7214 H   0  0  0  0  0  0
   -2.8194    7.7650   -2.8115 H   0  0  0  0  0  0
   -2.0146    6.2120   -2.8988 H   0  0  0  0  0  0
   -3.0012    7.7275    0.7226 H   0  0  0  0  0  0
  1  7  1  0  0  0
  1  8  1  0  0  0
  1 29  1  0  0  0
  2  3  2  0  0  0
  2  7  1  0  0  0
  2  9  1  0  0  0
  3  6  1  0  0  0
  3 30  1  0  0  0
  4  7  2  0  0  0
  4  5  1  0  0  0
  4 31  1  0  0  0
  5  6  2  0  0  0
  5 32  1  0  0  0
  6 26  1  0  0  0
  8  9  2  0  0  0
  8 10  1  0  0  0
 10 11  1  0  0  0
 10 33  1  0  0  0
 10 34  1  0  0  0
 11 12  1  0  0  0
 11 35  1  0  0  0
 11 36  1  0  0  0
 12 13  1  0  0  0
 12 37  1  0  0  0
 13 14  1  0  0  0
 13 15  2  0  0  0
 14 16  2  0  0  0
 14 20  1  0  0  0
 16 17  1  0  0  0
 16 38  1  0  0  0
 17 18  2  0  0  0
 17 39  1  0  0  0
 18 19  1  0  0  0
 18 21  1  0  0  0
 19 20  2  0  0  0
 19 40  1  0  0  0
 20 41  1  0  0  0
 21 22  1  0  0  0
 21 25  1  0  0  0
 22 23  2  0  0  0
 22 42  1  0  0  0
 23 24  1  0  0  0
 24 25  2  0  0  0
 25 43  1  0  0  0
 26 27  2  0  0  0
 26 28  1  0  0  0
 27 44  1  0  0  0
 27 47  1  0  0  0
 28 45  1  0  0  0
 28 46  1  0  0  0
M  CHG  1  27   1
M  END
> <chembl_id>
CHEMBL3423031

> <chembl_pref_name>
None

> <s_m_source_file>
sdf/inactives_sanitized.sdf

> <i_m_source_file_index>
150

> <i_lp_mmshare_version>
49012

> <i_m_ct_stereo_status>
1

> <i_f3d_flags>
0

> <s_epik_input>
W0hdXE49QyhbTkgyXSlcYyhbY0hdMSlbY0hdW2NIXWMoYzEyKVtuSF1jKG4yKVtDSDJdW0NIMl1bTkhdQyg9TyljM1tjSF1bY0hdYyhbY0hdW2NIXTMpLW40W2NIXW5uW2NIXTQ=

> <s_epik_cmdline>
J2VwaWtfcHl0aG9uJywgJy1waHQnLCAnMC41JywgJy1waCcsICc3LjUnLCAnLW50JywgJy1tYScsICcyMDAnLCAnLWltYWUnLCAnPGluZmlsZS5tYWU+JywgJy1vbWFlJywgJzxvdXRmaWxlLm1hZT4n

> <r_epik_Ionization_Penalty>
  0.0130

> <r_epik_Ionization_Penalty_Charging>
  0.0010

> <r_epik_Ionization_Penalty_Neutral>
  0.0120

> <r_epik_State_Penalty>
  0.5628

> <r_epik_Charging_Adjusted_Penalty>
0.563762857022673

> <i_epik_Tot_Q>
1

> <i_epik_Tot_abs_Q>
1

> <s_epik_Chemistry_Notes>
This compound has an imine and may undergo hydrolysis.

> <s_lp_Force_Field>
OPLS3e

> <r_lp_Energy>
21.2271

> <b_lp_Chiralities_Consistent>
1

> <s_lp_Variant>
sdf/inactives_sanitized.sdf:150-2

$$$$
sdf/inactives_sanitized.sdf:151
                    3D
 Schrodinger Suite 2020-1.
 80 86  0  0  1  0            999 V2000
    3.1937    1.5703    6.3994 S   0  0  0  0  0  0
   -0.3236   -0.0924   -1.7867 C   0  0  0  0  0  0
   -3.5398    7.2507    2.0262 N   0  0  0  0  0  0
   -3.6812    8.3674    1.2239 C   0  0  0  0  0  0
   -1.6839   -0.3801   -2.1758 C   0  0  0  0  0  0
   -4.3094    9.3692    1.7780 N   0  0  0  0  0  0
   -0.3418    2.0490   -0.4387 C   0  0  0  0  0  0
    0.1227    0.5764   -0.4867 C   0  0  2  0  0  0
    0.4554   -0.5569   -2.8357 C   0  0  0  0  0  0
   -0.3303   -1.0996   -3.8175 N   0  0  0  0  0  0
   -4.1521    7.5858    3.2280 C   0  0  0  0  0  0
    3.3826    2.4082    4.8467 N   0  0  0  0  0  0
   -2.9323   -0.1631   -1.5701 C   0  0  0  0  0  0
   -5.4168   -0.3224   -1.5856 C   0  0  0  0  0  0
   -4.1146   -0.5584   -2.2135 C   0  0  0  0  0  0
   -1.1463    2.3784    0.5960 N   0  0  0  0  0  0
   -1.6540   -1.0125   -3.4529 C   0  0  0  0  0  0
   -4.6189    8.9146    3.0290 C   0  0  0  0  0  0
   -2.9380    6.0304    1.6424 C   0  0  0  0  0  0
    1.7519    1.4891    6.6614 O   0  0  0  0  0  0
    4.0094    0.3526    6.3229 O   0  0  0  0  0  0
    3.9286    2.6680    7.6057 C   0  0  0  0  0  0
   -6.4129   -1.1692   -1.8171 N   0  3  0  0  0  0
    1.6530    0.4460   -0.2411 C   0  0  0  0  0  0
    0.0197    2.8267   -1.3238 O   0  0  0  0  0  0
   -4.0270   -1.1800   -3.4664 C   0  0  0  0  0  0
   -2.8151   -1.4213   -4.1116 C   0  0  0  0  0  0
    2.9441    1.8909    3.6188 C   0  0  0  0  0  0
   -1.7768    6.0491    0.8627 C   0  0  0  0  0  0
   -3.4618    4.8098    2.0805 C   0  0  0  0  0  0
   -1.7042    3.6302    0.9108 C   0  0  0  0  0  0
   -5.5751    0.7351   -0.7977 N   0  0  0  0  0  0
    2.1163    0.9546    1.1212 C   0  0  0  0  0  0
   -2.8452    3.6161    1.7157 C   0  0  0  0  0  0
   -1.1610    4.8557    0.4970 C   0  0  0  0  0  0
    2.3315    0.6370    3.5051 C   0  0  0  0  0  0
    3.1375    2.6712    2.4775 C   0  0  0  0  0  0
    2.7262    2.2059    1.2319 C   0  0  0  0  0  0
    1.9202    0.1710    2.2597 C   0  0  0  0  0  0
   -4.3432    6.9165    4.4459 C   0  0  0  0  0  0
   -5.3004    9.5814    4.0572 C   0  0  0  0  0  0
    5.2924    2.5694    7.8917 C   0  0  0  0  0  0
    3.1433    3.6393    8.2311 C   0  0  0  0  0  0
   -5.0256    7.6088    5.4490 C   0  0  0  0  0  0
   -5.4959    8.9080    5.2623 C   0  0  0  0  0  0
    3.7217    4.5044    9.1562 C   0  0  0  0  0  0
    5.8686    3.4356    8.8171 C   0  0  0  0  0  0
    5.0808    4.3980    9.4458 C   0  0  0  0  0  0
   -3.2974    8.3552    0.2138 H   0  0  0  0  0  0
   -0.3639    0.0328    0.3261 H   0  0  0  0  0  0
    1.5278   -0.5451   -2.9674 H   0  0  0  0  0  0
    0.0529   -1.4920   -4.6657 H   0  0  0  0  0  0
    3.8210    3.3173    4.8483 H   0  0  0  0  0  0
   -2.9797    0.3088   -0.6002 H   0  0  0  0  0  0
   -1.4372    1.6230    1.1988 H   0  0  0  0  0  0
   -7.3150   -1.0136   -1.3916 H   0  0  0  0  0  0
    1.9514   -0.6010   -0.3186 H   0  0  0  0  0  0
    2.2131    0.9600   -1.0253 H   0  0  0  0  0  0
   -4.9336   -1.4803   -3.9708 H   0  0  0  0  0  0
   -2.7856   -1.8991   -5.0801 H   0  0  0  0  0  0
   -1.3389    6.9839    0.5433 H   0  0  0  0  0  0
   -4.3557    4.7729    2.6852 H   0  0  0  0  0  0
   -6.4687    0.9072   -0.3610 H   0  0  0  0  0  0
   -4.8046    1.3706   -0.6512 H   0  0  0  0  0  0
   -3.2670    2.6810    2.0562 H   0  0  0  0  0  0
   -0.2574    4.9079   -0.0904 H   0  0  0  0  0  0
    2.1673    0.0119    4.3698 H   0  0  0  0  0  0
    3.6071    3.6419    2.5497 H   0  0  0  0  0  0
    2.8767    2.8208    0.3562 H   0  0  0  0  0  0
    1.4471   -0.7973    2.1820 H   0  0  0  0  0  0
   -3.9789    5.9155    4.6204 H   0  0  0  0  0  0
   -5.6648   10.5895    3.9242 H   0  0  0  0  0  0
    5.9056    1.8275    7.4014 H   0  0  0  0  0  0
    2.0907    3.7268    8.0040 H   0  0  0  0  0  0
   -5.1916    7.1246    6.4003 H   0  0  0  0  0  0
   -6.0184    9.4031    6.0678 H   0  0  0  0  0  0
    3.1200    5.2558    9.6460 H   0  0  0  0  0  0
    6.9218    3.3628    9.0450 H   0  0  0  0  0  0
    5.5285    5.0704   10.1628 H   0  0  0  0  0  0
   -6.2627   -1.9677   -2.4165 H   0  0  0  0  0  0
  1 12  1  0  0  0
  1 20  2  0  0  0
  1 21  2  0  0  0
  1 22  1  0  0  0
  2  8  1  0  0  0
  2  5  1  0  0  0
  2  9  2  0  0  0
  3 19  1  0  0  0
  3  4  1  0  0  0
  3 11  1  0  0  0
  4  6  2  0  0  0
  4 49  1  0  0  0
  5 13  2  0  0  0
  5 17  1  0  0  0
  6 18  1  0  0  0
  7  8  1  0  0  0
  7 16  1  0  0  0
  7 25  2  0  0  0
  8 24  1  0  0  0
  8 50  1  0  0  0
  9 10  1  0  0  0
  9 51  1  0  0  0
 10 17  1  0  0  0
 10 52  1  0  0  0
 11 18  2  0  0  0
 11 40  1  0  0  0
 12 28  1  0  0  0
 12 53  1  0  0  0
 13 15  1  0  0  0
 13 54  1  0  0  0
 14 15  1  0  0  0
 14 23  2  0  0  0
 14 32  1  0  0  0
 15 26  2  0  0  0
 16 31  1  0  0  0
 16 55  1  0  0  0
 17 27  2  0  0  0
 18 41  1  0  0  0
 19 29  2  0  0  0
 19 30  1  0  0  0
 22 42  2  0  0  0
 22 43  1  0  0  0
 23 56  1  0  0  0
 23 80  1  0  0  0
 24 33  1  0  0  0
 24 57  1  0  0  0
 24 58  1  0  0  0
 26 27  1  0  0  0
 26 59  1  0  0  0
 27 60  1  0  0  0
 28 36  2  0  0  0
 28 37  1  0  0  0
 29 35  1  0  0  0
 29 61  1  0  0  0
 30 34  2  0  0  0
 30 62  1  0  0  0
 31 34  1  0  0  0
 31 35  2  0  0  0
 32 63  1  0  0  0
 32 64  1  0  0  0
 33 38  1  0  0  0
 33 39  2  0  0  0
 34 65  1  0  0  0
 35 66  1  0  0  0
 36 39  1  0  0  0
 36 67  1  0  0  0
 37 38  2  0  0  0
 37 68  1  0  0  0
 38 69  1  0  0  0
 39 70  1  0  0  0
 40 44  2  0  0  0
 40 71  1  0  0  0
 41 45  2  0  0  0
 41 72  1  0  0  0
 42 47  1  0  0  0
 42 73  1  0  0  0
 43 46  2  0  0  0
 43 74  1  0  0  0
 44 45  1  0  0  0
 44 75  1  0  0  0
 45 76  1  0  0  0
 46 48  1  0  0  0
 46 77  1  0  0  0
 47 48  2  0  0  0
 47 78  1  0  0  0
 48 79  1  0  0  0
M  CHG  1  23   1
M  END
> <chembl_id>
CHEMBL364771

> <chembl_pref_name>
None

> <s_m_source_file>
sdf/inactives_sanitized.sdf

> <i_m_source_file_index>
151

> <i_lp_mmshare_version>
49012

> <i_m_ct_stereo_status>
1

> <i_f3d_flags>
0

> <s_epik_input>
W2NIXTFbY0hdW2NIXVtjSF1bY0hdYzFTKD1PKSg9TylbTkhdYzJbY0hdW2NIXWMoW2NIXVtjSF0yKVtDSDJdW0NASF0oYzNbY0hdW25IXWMoYzM0KVtjSF1bY0hdYyhbY0hdNCkvQyg9Ti9bSF0pW05IMl0pQyg9TylbTkhdYyhbY0hdW2NIXTUpW2NIXVtjSF1jNS1uNltjSF1uYyhjNjcpW2NIXVtjSF1bY0hdW2NIXTc=

> <s_epik_cmdline>
J2VwaWtfcHl0aG9uJywgJy1waHQnLCAnMC41JywgJy1waCcsICc3LjUnLCAnLW50JywgJy1tYScsICcyMDAnLCAnLWltYWUnLCAnPGluZmlsZS5tYWU+JywgJy1vbWFlJywgJzxvdXRmaWxlLm1hZT4n

> <r_lp_tautomer_probability>
1

> <r_epik_Ionization_Penalty>
  0.0372

> <r_epik_Ionization_Penalty_Charging>
  0.0010

> <r_epik_Ionization_Penalty_Neutral>
  0.0362

> <r_epik_State_Penalty>
 -0.0000

> <r_epik_Charging_Adjusted_Penalty>
0.000984797499885888

> <i_epik_Tot_Q>
1

> <i_epik_Tot_abs_Q>
1

> <s_epik_Chemistry_Notes>
This compound has an imine and may undergo hydrolysis.

> <s_lp_Force_Field>
OPLS3e

> <r_lp_Energy>
60.755265

> <b_lp_Chiralities_Consistent>
1

> <s_lp_Variant>
sdf/inactives_sanitized.sdf:151-1

$$$$
sdf/inactives_sanitized.sdf:152
                    3D
 Schrodinger Suite 2020-1.
 65 70  0  0  1  0            999 V2000
   -0.5033    0.0043   -0.3505 N   0  0  0  0  0  0
    4.0247   -1.0471    7.3055 N   0  0  0  0  0  0
   -1.2387    1.1595   -0.1072 C   0  0  0  0  0  0
    3.2970   -1.4855    8.3954 C   0  0  0  0  0  0
    1.1088   -0.7412    1.3660 C   0  0  0  0  0  0
    0.9261   -0.1733   -0.0619 C   0  0  1  0  0  0
    3.9738   -1.5773    9.5090 N   0  0  0  0  0  0
   -1.3360   -0.9545   -0.8882 C   0  0  0  0  0  0
    3.5162   -0.8289    6.0058 C   0  0  0  0  0  0
    5.3111   -0.8361    7.7859 C   0  0  0  0  0  0
    2.1203   -0.1873    2.0710 N   0  0  0  0  0  0
   -0.8697    2.3961    0.4415 C   0  0  0  0  0  0
    3.9551    0.2549    5.2379 C   0  0  0  0  0  0
   -1.5065    4.7000    1.1436 C   0  0  0  0  0  0
   -2.6073   -0.4460   -1.0248 C   0  0  0  0  0  0
   -1.8509    3.3939    0.5697 C   0  0  0  0  0  0
    2.5528   -0.4548    3.3862 C   0  0  0  0  0  0
    3.4745    0.4439    3.9419 C   0  0  0  0  0  0
   -2.5757    0.8961   -0.5310 C   0  0  0  0  0  0
    5.2349   -1.1788    9.1641 C   0  0  0  0  0  0
   -2.4454    5.4129    1.7555 N   0  3  0  0  0  0
    1.7449   -0.9863   -1.1001 C   0  0  0  0  0  0
    0.3543   -1.6312    1.7635 O   0  0  0  0  0  0
    2.6067   -1.7360    5.4516 C   0  0  0  0  0  0
    2.1271   -1.5521    4.1553 C   0  0  0  0  0  0
   -3.1610    3.1291    0.1475 C   0  0  0  0  0  0
   -3.5366    1.9051   -0.3982 C   0  0  0  0  0  0
   -0.2603    5.1488    1.0434 N   0  0  0  0  0  0
    3.9120    1.5121    3.2319 F   0  0  0  0  0  0
    1.7940   -0.3717   -2.4896 C   0  0  0  0  0  0
    6.5129   -0.4115    7.2004 C   0  0  0  0  0  0
    6.3749   -1.0842    9.9751 C   0  0  0  0  0  0
    0.8705   -0.7628   -3.4829 C   0  0  0  0  0  0
    2.6595    0.7122   -2.7504 C   0  0  0  0  0  0
    7.6295   -0.3293    8.0357 C   0  0  0  0  0  0
    7.5656   -0.6549    9.3899 C   0  0  0  0  0  0
    2.6376    1.3373   -3.9902 C   0  0  0  0  0  0
    0.8634   -0.1242   -4.7159 C   0  0  0  0  0  0
    1.7466    0.9175   -4.9699 C   0  0  0  0  0  0
    2.2452   -1.7071    8.2847 H   0  0  0  0  0  0
    1.3450    0.8351   -0.0699 H   0  0  0  0  0  0
   -0.9506   -1.9341   -1.1305 H   0  0  0  0  0  0
    2.6294    0.5552    1.6138 H   0  0  0  0  0  0
    0.1418    2.5778    0.7714 H   0  0  0  0  0  0
    4.6556    0.9695    5.6446 H   0  0  0  0  0  0
   -3.4543   -0.9846   -1.4238 H   0  0  0  0  0  0
   -2.2171    6.3117    2.1542 H   0  0  0  0  0  0
    2.7793   -1.0724   -0.7619 H   0  0  0  0  0  0
    1.3737   -2.0095   -1.1756 H   0  0  0  0  0  0
    2.2725   -2.5953    6.0153 H   0  0  0  0  0  0
    1.4383   -2.2883    3.7744 H   0  0  0  0  0  0
   -3.9165    3.8957    0.2362 H   0  0  0  0  0  0
   -4.5570    1.7396   -0.7112 H   0  0  0  0  0  0
   -0.0158    6.0475    1.4331 H   0  0  0  0  0  0
    0.4354    4.5923    0.5687 H   0  0  0  0  0  0
    6.5912   -0.1648    6.1524 H   0  0  0  0  0  0
    6.3372   -1.3376   11.0244 H   0  0  0  0  0  0
    0.1690   -1.5615   -3.2925 H   0  0  0  0  0  0
    3.3428    1.0579   -1.9884 H   0  0  0  0  0  0
    8.5728   -0.0067    7.6196 H   0  0  0  0  0  0
    8.4564   -0.5767    9.9959 H   0  0  0  0  0  0
    3.3106    2.1578   -4.1911 H   0  0  0  0  0  0
    0.1638   -0.4347   -5.4782 H   0  0  0  0  0  0
    1.7330    1.4103   -5.9311 H   0  0  0  0  0  0
   -3.3840    5.0478    1.8251 H   0  0  0  0  0  0
  1  3  1  0  0  0
  1  6  1  0  0  0
  1  8  1  0  0  0
  2  9  1  0  0  0
  2  4  1  0  0  0
  2 10  1  0  0  0
  3 12  2  0  0  0
  3 19  1  0  0  0
  4  7  2  0  0  0
  4 40  1  0  0  0
  5  6  1  0  0  0
  5 11  1  0  0  0
  5 23  2  0  0  0
  6 22  1  0  0  0
  6 41  1  0  0  0
  7 20  1  0  0  0
  8 15  2  0  0  0
  8 42  1  0  0  0
  9 24  2  0  0  0
  9 13  1  0  0  0
 10 20  2  0  0  0
 10 31  1  0  0  0
 11 17  1  0  0  0
 11 43  1  0  0  0
 12 16  1  0  0  0
 12 44  1  0  0  0
 13 18  2  0  0  0
 13 45  1  0  0  0
 14 16  1  0  0  0
 14 21  2  0  0  0
 14 28  1  0  0  0
 15 19  1  0  0  0
 15 46  1  0  0  0
 16 26  2  0  0  0
 17 18  1  0  0  0
 17 25  2  0  0  0
 18 29  1  0  0  0
 19 27  2  0  0  0
 20 32  1  0  0  0
 21 47  1  0  0  0
 21 65  1  0  0  0
 22 30  1  0  0  0
 22 48  1  0  0  0
 22 49  1  0  0  0
 24 25  1  0  0  0
 24 50  1  0  0  0
 25 51  1  0  0  0
 26 27  1  0  0  0
 26 52  1  0  0  0
 27 53  1  0  0  0
 28 54  1  0  0  0
 28 55  1  0  0  0
 30 33  2  0  0  0
 30 34  1  0  0  0
 31 35  2  0  0  0
 31 56  1  0  0  0
 32 36  2  0  0  0
 32 57  1  0  0  0
 33 38  1  0  0  0
 33 58  1  0  0  0
 34 37  2  0  0  0
 34 59  1  0  0  0
 35 36  1  0  0  0
 35 60  1  0  0  0
 36 61  1  0  0  0
 37 39  1  0  0  0
 37 62  1  0  0  0
 38 39  2  0  0  0
 38 63  1  0  0  0
 39 64  1  0  0  0
M  CHG  1  21   1
M  END
> <chembl_id>
CHEMBL366135

> <chembl_pref_name>
None

> <s_m_source_file>
sdf/inactives_sanitized.sdf

> <i_m_source_file_index>
152

> <i_lp_mmshare_version>
49012

> <i_m_ct_stereo_status>
1

> <i_f3d_flags>
0

> <s_epik_input>
W0hdXE49QyhbTkgyXSlcYyhbY0hdMSlbY0hdW2NIXWMoYzEyKVtjSF1bY0hdbjJbQ0BIXShbQ0gyXWMzW2NIXVtjSF1bY0hdW2NIXVtjSF0zKUMoPU8pW05IXWMoW2NIXVtjSF00KWMoRilbY0hdYzQtbjVbY0hdbmMoYzU2KVtjSF1bY0hdW2NIXVtjSF02

> <s_epik_cmdline>
J2VwaWtfcHl0aG9uJywgJy1waHQnLCAnMC41JywgJy1waCcsICc3LjUnLCAnLW50JywgJy1tYScsICcyMDAnLCAnLWltYWUnLCAnPGluZmlsZS5tYWU+JywgJy1vbWFlJywgJzxvdXRmaWxlLm1hZT4n

> <r_epik_Ionization_Penalty>
  0.0112

> <r_epik_Ionization_Penalty_Charging>
  0.0010

> <r_epik_Ionization_Penalty_Neutral>
  0.0102

> <r_epik_State_Penalty>
  0.0078

> <r_epik_Charging_Adjusted_Penalty>
0.00877873498810205

> <i_epik_Tot_Q>
1

> <i_epik_Tot_abs_Q>
1

> <s_epik_Chemistry_Notes>
This compound has an imine and may undergo hydrolysis.

> <s_lp_Force_Field>
OPLS3e

> <r_lp_Energy>
55.630777

> <b_lp_Chiralities_Consistent>
1

> <s_lp_Variant>
sdf/inactives_sanitized.sdf:152-1

$$$$
sdf/inactives_sanitized.sdf:153
                    3D
 Schrodinger Suite 2020-1.
 68 73  0  0  1  0            999 V2000
   -0.5071   -0.1488   -1.3183 C   0  0  0  0  0  0
    4.6696    3.7276   -4.3651 N   0  0  0  0  0  0
    5.4682    2.8171   -5.0311 C   0  0  0  0  0  0
   -0.9543    0.8361   -2.2723 C   0  0  0  0  0  0
    5.9063    3.2152   -6.1952 N   0  0  0  0  0  0
   -0.2868   -1.2979   -2.0616 C   0  0  0  0  0  0
   -0.3091    0.0772    0.1792 C   0  0  2  0  0  0
   -0.5728   -1.0786   -3.3831 N   0  0  0  0  0  0
    4.6076    4.8369   -5.1997 C   0  0  0  0  0  0
   -1.3298    2.1854   -2.1687 C   0  0  0  0  0  0
    1.0541    0.7559    0.4095 C   0  0  0  0  0  0
   -2.1147    4.3135   -3.1993 C   0  0  0  0  0  0
   -1.7223    2.9053   -3.3071 C   0  0  0  0  0  0
   -0.9836    0.2229   -3.5584 C   0  0  0  0  0  0
    5.3875    4.4721   -6.3318 C   0  0  0  0  0  0
    4.0515    3.5238   -3.1104 C   0  0  0  0  0  0
    1.0288    2.0748    0.6776 N   0  0  0  0  0  0
   -2.9930    4.8129   -4.0610 N   0  3  0  0  0  0
   -0.4611   -1.2143    1.0310 C   0  0  0  0  0  0
    2.0972    0.1086    0.2972 O   0  0  0  0  0  0
   -1.7327    2.2525   -4.5474 C   0  0  0  0  0  0
   -1.3708    0.9158   -4.7068 C   0  0  0  0  0  0
    4.7468    2.8548   -2.0965 C   0  0  0  0  0  0
    2.7735    4.0346   -2.8591 C   0  0  0  0  0  0
   -1.5848    5.0649   -2.2409 N   0  0  0  0  0  0
    2.2065    2.9395    0.7475 C   0  0  0  0  0  0
    2.8689    3.1594   -0.6090 C   0  0  0  0  0  0
   -1.8483   -1.8460    0.9539 C   0  0  0  0  0  0
    4.1548    2.6712   -0.8500 C   0  0  0  0  0  0
    2.1849    3.8513   -1.6117 C   0  0  0  0  0  0
    3.9923    6.0942   -5.1072 C   0  0  0  0  0  0
    5.5416    5.3706   -7.3975 C   0  0  0  0  0  0
   -2.9478   -1.1816    1.5058 C   0  0  0  0  0  0
   -2.0216   -3.0873    0.3340 C   0  0  0  0  0  0
    4.1669    6.9656   -6.1848 C   0  0  0  0  0  0
    4.9196    6.6152   -7.3048 C   0  0  0  0  0  0
   -3.2902   -3.6555    0.2558 C   0  0  0  0  0  0
   -4.2164   -1.7502    1.4274 C   0  0  0  0  0  0
   -4.3820   -2.9839    0.8015 C   0  0  0  0  0  0
    5.6693    1.8530   -4.5865 H   0  0  0  0  0  0
    0.0630   -2.2721   -1.7526 H   0  0  0  0  0  0
   -1.0841    0.7664    0.5209 H   0  0  0  0  0  0
   -0.4732   -1.7959   -4.0873 H   0  0  0  0  0  0
   -1.3205    2.6672   -1.2028 H   0  0  0  0  0  0
    0.1330    2.5333    0.7545 H   0  0  0  0  0  0
   -3.2702    5.7812   -3.9937 H   0  0  0  0  0  0
    0.2987   -1.9497    0.7582 H   0  0  0  0  0  0
   -0.2681   -0.9893    2.0818 H   0  0  0  0  0  0
   -2.0254    2.8012   -5.4303 H   0  0  0  0  0  0
   -1.3881    0.4466   -5.6798 H   0  0  0  0  0  0
    5.7442    2.4748   -2.2653 H   0  0  0  0  0  0
    2.2195    4.5518   -3.6283 H   0  0  0  0  0  0
   -1.8521    6.0349   -2.1566 H   0  0  0  0  0  0
   -0.9160    4.6621   -1.6013 H   0  0  0  0  0  0
    1.8886    3.9085    1.1337 H   0  0  0  0  0  0
    2.9200    2.5446    1.4742 H   0  0  0  0  0  0
    4.6939    2.1416   -0.0778 H   0  0  0  0  0  0
    1.1920    4.2349   -1.4289 H   0  0  0  0  0  0
    3.4146    6.3947   -4.2464 H   0  0  0  0  0  0
    6.1281    5.1113   -8.2667 H   0  0  0  0  0  0
   -2.8218   -0.2248    1.9915 H   0  0  0  0  0  0
   -1.1778   -3.6116   -0.0902 H   0  0  0  0  0  0
    3.7081    7.9429   -6.1480 H   0  0  0  0  0  0
    5.0273    7.3234   -8.1133 H   0  0  0  0  0  0
   -3.4268   -4.6129   -0.2252 H   0  0  0  0  0  0
   -5.0681   -1.2375    1.8498 H   0  0  0  0  0  0
   -5.3660   -3.4248    0.7401 H   0  0  0  0  0  0
   -3.3845    4.2188   -4.7774 H   0  0  0  0  0  0
  1  4  1  0  0  0
  1  6  2  0  0  0
  1  7  1  0  0  0
  2 16  1  0  0  0
  2  3  1  0  0  0
  2  9  1  0  0  0
  3  5  2  0  0  0
  3 40  1  0  0  0
  4 10  2  0  0  0
  4 14  1  0  0  0
  5 15  1  0  0  0
  6  8  1  0  0  0
  6 41  1  0  0  0
  7 11  1  0  0  0
  7 19  1  0  0  0
  7 42  1  0  0  0
  8 14  1  0  0  0
  8 43  1  0  0  0
  9 15  2  0  0  0
  9 31  1  0  0  0
 10 13  1  0  0  0
 10 44  1  0  0  0
 11 17  1  0  0  0
 11 20  2  0  0  0
 12 13  1  0  0  0
 12 18  2  0  0  0
 12 25  1  0  0  0
 13 21  2  0  0  0
 14 22  2  0  0  0
 15 32  1  0  0  0
 16 24  2  0  0  0
 16 23  1  0  0  0
 17 26  1  0  0  0
 17 45  1  0  0  0
 18 46  1  0  0  0
 18 68  1  0  0  0
 19 28  1  0  0  0
 19 47  1  0  0  0
 19 48  1  0  0  0
 21 22  1  0  0  0
 21 49  1  0  0  0
 22 50  1  0  0  0
 23 29  2  0  0  0
 23 51  1  0  0  0
 24 30  1  0  0  0
 24 52  1  0  0  0
 25 53  1  0  0  0
 25 54  1  0  0  0
 26 27  1  0  0  0
 26 55  1  0  0  0
 26 56  1  0  0  0
 27 29  1  0  0  0
 27 30  2  0  0  0
 28 33  2  0  0  0
 28 34  1  0  0  0
 29 57  1  0  0  0
 30 58  1  0  0  0
 31 35  2  0  0  0
 31 59  1  0  0  0
 32 36  2  0  0  0
 32 60  1  0  0  0
 33 38  1  0  0  0
 33 61  1  0  0  0
 34 37  2  0  0  0
 34 62  1  0  0  0
 35 36  1  0  0  0
 35 63  1  0  0  0
 36 64  1  0  0  0
 37 39  1  0  0  0
 37 65  1  0  0  0
 38 39  2  0  0  0
 38 66  1  0  0  0
 39 67  1  0  0  0
M  CHG  1  18   1
M  END
> <chembl_id>
CHEMBL185786

> <chembl_pref_name>
None

> <s_m_source_file>
sdf/inactives_sanitized.sdf

> <i_m_source_file_index>
153

> <i_lp_mmshare_version>
49012

> <i_m_ct_stereo_status>
1

> <i_f3d_flags>
0

> <s_epik_input>
W0hdXE49QyhbTkgyXSlcYyhbY0hdMSlbY0hdW2NIXWMoYzEyKVtuSF1bY0hdYzJbQ0BASF0oW0NIMl1jM1tjSF1bY0hdW2NIXVtjSF1bY0hdMylDKD1PKVtOSF1bQ0gyXWMoW2NIXVtjSF00KVtjSF1bY0hdYzQtbjVbY0hdbmMoYzU2KVtjSF1bY0hdW2NIXVtjSF02

> <s_epik_cmdline>
J2VwaWtfcHl0aG9uJywgJy1waHQnLCAnMC41JywgJy1waCcsICc3LjUnLCAnLW50JywgJy1tYScsICcyMDAnLCAnLWltYWUnLCAnPGluZmlsZS5tYWU+JywgJy1vbWFlJywgJzxvdXRmaWxlLm1hZT4n

> <r_epik_Ionization_Penalty>
  0.0162

> <r_epik_Ionization_Penalty_Charging>
  0.0010

> <r_epik_Ionization_Penalty_Neutral>
  0.0152

> <r_epik_State_Penalty>
  0.0120

> <r_epik_Charging_Adjusted_Penalty>
0.012936490529279

> <i_epik_Tot_Q>
1

> <i_epik_Tot_abs_Q>
1

> <s_epik_Chemistry_Notes>
This compound has an imine and may undergo hydrolysis.

> <s_lp_Force_Field>
OPLS3e

> <r_lp_Energy>
41.968147

> <b_lp_Chiralities_Consistent>
1

> <s_lp_Variant>
sdf/inactives_sanitized.sdf:153-1

$$$$
sdf/inactives_sanitized.sdf:154
                    3D
 Schrodinger Suite 2020-1.
 70 76  0  0  1  0            999 V2000
    0.0932    0.0166   -0.2677 C   0  0  0  0  0  0
    3.9375   -1.5846   -7.6208 N   0  0  0  0  0  0
    3.2635   -1.3517   -8.8046 C   0  0  0  0  0  0
   -0.6436    1.2294   -0.0459 C   0  0  0  0  0  0
    1.6118   -0.0951   -0.0776 C   0  0  2  0  0  0
    3.9041   -1.7130   -9.8841 N   0  0  0  0  0  0
    2.3107   -0.8295   -1.2494 C   0  0  0  0  0  0
   -0.7637   -1.0134   -0.6189 C   0  0  0  0  0  0
   -2.4446   -0.5778   -0.7241 S   0  0  0  0  0  0
    5.1445   -2.1622   -7.9955 C   0  0  0  0  0  0
    1.9604   -0.6854    1.3208 C   0  0  0  0  0  0
   -0.1888    2.5045    0.3448 C   0  0  0  0  0  0
   -0.5920    4.8818    0.9535 C   0  0  0  0  0  0
    1.4159    0.1303    2.4974 C   0  0  0  0  0  0
   -1.0814    3.5694    0.5300 C   0  0  0  0  0  0
    2.0891   -0.3032   -2.4756 N   0  0  0  0  0  0
   -2.0452    1.0626   -0.2559 C   0  0  0  0  0  0
    5.0819   -2.2239   -9.4150 C   0  0  0  0  0  0
    3.4485   -1.3158   -6.3226 C   0  0  0  0  0  0
    2.0493    1.3480    2.9115 C   0  0  0  0  0  0
   -1.1702    5.9754    0.4699 N   0  3  0  0  0  0
    3.0254   -1.8076   -1.0269 O   0  0  0  0  0  0
   -2.4452    3.3564    0.3077 C   0  0  0  0  0  0
   -2.9458    2.1202   -0.0854 C   0  0  0  0  0  0
    3.7146   -2.1951   -5.2687 C   0  0  0  0  0  0
    2.7438   -0.1328   -6.0802 C   0  0  0  0  0  0
    2.5709   -0.7084   -3.7355 C   0  0  0  0  0  0
    0.4189    4.9467    1.8123 N   0  0  0  0  0  0
    1.4752    2.0830    3.9992 C   0  0  0  0  0  0
    2.3037    0.1636   -4.7935 C   0  0  0  0  0  0
    3.2728   -1.8993   -3.9822 C   0  0  0  0  0  0
    0.2681   -0.3139    3.1567 C   0  0  0  0  0  0
    6.2686   -2.6166   -7.2901 C   0  0  0  0  0  0
   -0.2801    0.4080    4.2082 C   0  0  0  0  0  0
    3.2236    1.8712    2.2968 C   0  0  0  0  0  0
    6.1543   -2.7601  -10.1424 C   0  0  0  0  0  0
    0.3076    1.5932    4.6325 C   0  0  0  0  0  0
    2.0837    3.2900    4.4263 C   0  0  0  0  0  0
    7.3185   -3.1449   -8.0446 C   0  0  0  0  0  0
    3.7922    3.0619    2.7388 C   0  0  0  0  0  0
    7.2657   -3.2181   -9.4359 C   0  0  0  0  0  0
    3.2280    3.7652    3.7950 C   0  0  0  0  0  0
    2.2757   -0.9145   -8.7827 H   0  0  0  0  0  0
    2.0549    0.8994   -0.1178 H   0  0  0  0  0  0
   -0.4799   -2.0348   -0.8275 H   0  0  0  0  0  0
    1.5850   -1.7085    1.3909 H   0  0  0  0  0  0
    3.0385   -0.7949    1.4493 H   0  0  0  0  0  0
    0.8635    2.6733    0.5126 H   0  0  0  0  0  0
    1.5134    0.5253   -2.5022 H   0  0  0  0  0  0
   -1.9348    5.8909   -0.1841 H   0  0  0  0  0  0
   -3.1415    4.1690    0.4535 H   0  0  0  0  0  0
   -4.0057    1.9819   -0.2449 H   0  0  0  0  0  0
    4.2478   -3.1189   -5.4383 H   0  0  0  0  0  0
    2.5429    0.5664   -6.8793 H   0  0  0  0  0  0
    0.7681    5.8445    2.1136 H   0  0  0  0  0  0
    0.8332    4.0950    2.1641 H   0  0  0  0  0  0
    1.7628    1.0841   -4.6244 H   0  0  0  0  0  0
    3.4880   -2.6156   -3.2063 H   0  0  0  0  0  0
   -0.2155   -1.2279    2.8432 H   0  0  0  0  0  0
    6.3392   -2.5602   -6.2142 H   0  0  0  0  0  0
   -1.1711    0.0449    4.6992 H   0  0  0  0  0  0
    3.6916    1.3479    1.4771 H   0  0  0  0  0  0
    6.1254   -2.8171  -11.2207 H   0  0  0  0  0  0
   -0.1268    2.1462    5.4532 H   0  0  0  0  0  0
    1.6531    3.8430    5.2490 H   0  0  0  0  0  0
    8.2003   -3.5048   -7.5350 H   0  0  0  0  0  0
    4.6830    3.4406    2.2592 H   0  0  0  0  0  0
    8.1034   -3.6343   -9.9763 H   0  0  0  0  0  0
    3.6832    4.6860    4.1293 H   0  0  0  0  0  0
   -0.8441    6.8867    0.7570 H   0  0  0  0  0  0
  1  4  1  0  0  0
  1  5  1  0  0  0
  1  8  2  0  0  0
  2 19  1  0  0  0
  2  3  1  0  0  0
  2 10  1  0  0  0
  3  6  2  0  0  0
  3 43  1  0  0  0
  4 12  2  0  0  0
  4 17  1  0  0  0
  5  7  1  0  0  0
  5 11  1  0  0  0
  5 44  1  0  0  0
  6 18  1  0  0  0
  7 16  1  0  0  0
  7 22  2  0  0  0
  8  9  1  0  0  0
  8 45  1  0  0  0
  9 17  1  0  0  0
 10 18  2  0  0  0
 10 33  1  0  0  0
 11 14  1  0  0  0
 11 46  1  0  0  0
 11 47  1  0  0  0
 12 15  1  0  0  0
 12 48  1  0  0  0
 13 15  1  0  0  0
 13 21  2  0  0  0
 13 28  1  0  0  0
 14 20  1  0  0  0
 14 32  2  0  0  0
 15 23  2  0  0  0
 16 27  1  0  0  0
 16 49  1  0  0  0
 17 24  2  0  0  0
 18 36  1  0  0  0
 19 26  2  0  0  0
 19 25  1  0  0  0
 20 29  2  0  0  0
 20 35  1  0  0  0
 21 50  1  0  0  0
 21 70  1  0  0  0
 23 24  1  0  0  0
 23 51  1  0  0  0
 24 52  1  0  0  0
 25 31  2  0  0  0
 25 53  1  0  0  0
 26 30  1  0  0  0
 26 54  1  0  0  0
 27 30  2  0  0  0
 27 31  1  0  0  0
 28 55  1  0  0  0
 28 56  1  0  0  0
 29 38  1  0  0  0
 29 37  1  0  0  0
 30 57  1  0  0  0
 31 58  1  0  0  0
 32 34  1  0  0  0
 32 59  1  0  0  0
 33 39  2  0  0  0
 33 60  1  0  0  0
 34 37  2  0  0  0
 34 61  1  0  0  0
 35 40  2  0  0  0
 35 62  1  0  0  0
 36 41  2  0  0  0
 36 63  1  0  0  0
 37 64  1  0  0  0
 38 42  2  0  0  0
 38 65  1  0  0  0
 39 41  1  0  0  0
 39 66  1  0  0  0
 40 42  1  0  0  0
 40 67  1  0  0  0
 41 68  1  0  0  0
 42 69  1  0  0  0
M  CHG  1  21   1
M  END
> <chembl_id>
CHEMBL182800

> <chembl_pref_name>
None

> <s_m_source_file>
sdf/inactives_sanitized.sdf

> <i_m_source_file_index>
154

> <i_lp_mmshare_version>
49012

> <i_m_ct_stereo_status>
1

> <i_f3d_flags>
0

> <s_epik_input>
W2NIXTFbY0hdW2NIXVtjSF1jKGMxMilbY0hdW2NIXVtjSF1jMltDSDJdW0NASF0oYzNbY0hdc2MoYzM0KVtjSF1bY0hdYyhbY0hdNCkvQyg9Ti9bSF0pW05IMl0pQyg9TylbTkhdYyhbY0hdW2NIXTUpW2NIXVtjSF1jNS1uNltjSF1uYyhjNjcpW2NIXVtjSF1bY0hdW2NIXTc=

> <s_epik_cmdline>
J2VwaWtfcHl0aG9uJywgJy1waHQnLCAnMC41JywgJy1waCcsICc3LjUnLCAnLW50JywgJy1tYScsICcyMDAnLCAnLWltYWUnLCAnPGluZmlsZS5tYWU+JywgJy1vbWFlJywgJzxvdXRmaWxlLm1hZT4n

> <r_epik_Ionization_Penalty>
  0.0112

> <r_epik_Ionization_Penalty_Charging>
  0.0010

> <r_epik_Ionization_Penalty_Neutral>
  0.0102

> <r_epik_State_Penalty>
  0.0078

> <r_epik_Charging_Adjusted_Penalty>
0.00877873498810205

> <i_epik_Tot_Q>
1

> <i_epik_Tot_abs_Q>
1

> <s_epik_Chemistry_Notes>
This compound has an imine and may undergo hydrolysis.

> <s_lp_Force_Field>
OPLS3e

> <r_lp_Energy>
61.61108

> <b_lp_Chiralities_Consistent>
1

> <s_lp_Variant>
sdf/inactives_sanitized.sdf:154-1

$$$$
sdf/inactives_sanitized.sdf:155
                    3D
 Schrodinger Suite 2020-1.
 45 48  0  0  1  0            999 V2000
   -0.0514    0.1112   -0.1212 C   0  0  0  0  0  0
   -0.7127   -1.1115   -0.2725 C   0  0  0  0  0  0
   -2.1013   -1.2024   -0.2888 C   0  0  0  0  0  0
   -0.8046    1.2846    0.0194 C   0  0  0  0  0  0
   -2.2093    1.2388    0.0077 C   0  0  0  0  0  0
   -2.8439   -0.0239   -0.1487 C   0  0  0  0  0  0
   -4.5924    0.1298   -0.1404 S   0  0  0  0  0  0
   -4.4755    1.8725    0.0772 C   0  0  0  0  0  0
   -3.1546    2.2948    0.1310 C   0  0  0  0  0  0
   -5.6094    2.6602    0.1529 C   0  0  0  0  0  0
   -6.6947    2.1808    0.7476 N   0  0  0  0  0  0
   -5.5723    3.8797   -0.3690 N   0  3  0  0  0  0
    1.4387    0.1669   -0.1132 C   0  0  0  0  0  0
    2.1187    1.1710   -0.8123 C   0  0  0  0  0  0
    4.2521    0.2640   -0.1069 C   0  0  0  0  0  0
    3.5770   -0.7343    0.5938 C   0  0  0  0  0  0
    3.5100    1.2222   -0.8128 C   0  0  0  0  0  0
    2.1860   -0.7845    0.5911 C   0  0  0  0  0  0
    5.6322    0.2306   -0.0518 O   0  0  0  0  0  0
    6.3842    1.2098   -0.7633 C   0  0  0  0  0  0
    7.8649    0.9372   -0.5603 C   0  0  0  0  0  0
    8.5821    0.2181   -1.5205 C   0  0  0  0  0  0
   10.5697    0.4254   -0.1753 C   0  0  0  0  0  0
    9.8593    1.1408    0.7866 C   0  0  0  0  0  0
    9.9374   -0.0372   -1.3276 C   0  0  0  0  0  0
    8.5041    1.3967    0.5944 C   0  0  0  0  0  0
   -0.1389   -2.0199   -0.3885 H   0  0  0  0  0  0
   -2.5874   -2.1598   -0.4090 H   0  0  0  0  0  0
   -0.3022    2.2329    0.1434 H   0  0  0  0  0  0
   -2.8669    3.3281    0.2577 H   0  0  0  0  0  0
   -7.5291    2.7459    0.8057 H   0  0  0  0  0  0
   -6.6812    1.2489    1.1361 H   0  0  0  0  0  0
   -6.3895    4.4707   -0.3254 H   0  0  0  0  0  0
    1.5699    1.9167   -1.3691 H   0  0  0  0  0  0
    4.1356   -1.4777    1.1439 H   0  0  0  0  0  0
    3.9933    2.0114   -1.3683 H   0  0  0  0  0  0
    1.6912   -1.5683    1.1462 H   0  0  0  0  0  0
    6.1467    1.1805   -1.8288 H   0  0  0  0  0  0
    6.1492    2.2147   -0.4063 H   0  0  0  0  0  0
    8.0931   -0.1448   -2.4132 H   0  0  0  0  0  0
   11.6207    0.2262   -0.0259 H   0  0  0  0  0  0
   10.3572    1.4945    1.6773 H   0  0  0  0  0  0
   10.4955   -0.5921   -2.0674 H   0  0  0  0  0  0
    7.9529    1.9488    1.3419 H   0  0  0  0  0  0
   -4.7295    4.2066   -0.8184 H   0  0  0  0  0  0
  1 13  1  0  0  0
  1  2  1  0  0  0
  1  4  2  0  0  0
  2  3  2  0  0  0
  2 27  1  0  0  0
  3  6  1  0  0  0
  3 28  1  0  0  0
  4  5  1  0  0  0
  4 29  1  0  0  0
  5  9  1  0  0  0
  5  6  2  0  0  0
  6  7  1  0  0  0
  7  8  1  0  0  0
  8  9  2  0  0  0
  8 10  1  0  0  0
  9 30  1  0  0  0
 10 11  1  0  0  0
 10 12  2  0  0  0
 11 31  1  0  0  0
 11 32  1  0  0  0
 12 33  1  0  0  0
 12 45  1  0  0  0
 13 14  2  0  0  0
 13 18  1  0  0  0
 14 17  1  0  0  0
 14 34  1  0  0  0
 15 16  1  0  0  0
 15 17  2  0  0  0
 15 19  1  0  0  0
 16 18  2  0  0  0
 16 35  1  0  0  0
 17 36  1  0  0  0
 18 37  1  0  0  0
 19 20  1  0  0  0
 20 21  1  0  0  0
 20 38  1  0  0  0
 20 39  1  0  0  0
 21 22  2  0  0  0
 21 26  1  0  0  0
 22 25  1  0  0  0
 22 40  1  0  0  0
 23 24  1  0  0  0
 23 25  2  0  0  0
 23 41  1  0  0  0
 24 26  2  0  0  0
 24 42  1  0  0  0
 25 43  1  0  0  0
 26 44  1  0  0  0
M  CHG  1  12   1
M  END
> <chembl_id>
CHEMBL598385

> <chembl_pref_name>
None

> <s_m_source_file>
sdf/inactives_sanitized.sdf

> <i_m_source_file_index>
155

> <i_lp_mmshare_version>
49012

> <i_m_ct_stereo_status>
1

> <i_f3d_flags>
0

> <s_epik_input>
W0hdXE49QyhbTkgyXSlcYyhbY0hdMSlzYyhjMTIpW2NIXVtjSF1jKFtjSF0yKS1jM1tjSF1bY0hdYyhbY0hdW2NIXTMpT1tDSDJdYzRbY0hdW2NIXVtjSF1bY0hdW2NIXTQ=

> <s_epik_cmdline>
J2VwaWtfcHl0aG9uJywgJy1waHQnLCAnMC41JywgJy1waCcsICc3LjUnLCAnLW50JywgJy1tYScsICcyMDAnLCAnLWltYWUnLCAnPGluZmlsZS5tYWU+JywgJy1vbWFlJywgJzxvdXRmaWxlLm1hZT4n

> <r_lp_tautomer_probability>
1

> <r_epik_Ionization_Penalty>
  0.0095

> <r_epik_Ionization_Penalty_Charging>
  0.0095

> <r_epik_Ionization_Penalty_Neutral>
  0.0000

> <r_epik_State_Penalty>
 -0.0000

> <r_epik_Charging_Adjusted_Penalty>
0.00945881282357717

> <i_epik_Tot_Q>
1

> <i_epik_Tot_abs_Q>
1

> <s_epik_Chemistry_Notes>
This compound has an imine and may undergo hydrolysis.

> <s_lp_Force_Field>
OPLS3e

> <r_lp_Energy>
30.305498

> <b_lp_Chiralities_Consistent>
1

> <s_lp_Variant>
sdf/inactives_sanitized.sdf:155-1

$$$$
sdf/inactives_sanitized.sdf:156
                    3D
 Schrodinger Suite 2020-1.
 45 48  0  0  1  0            999 V2000
   -0.0295    0.1858    0.0730 O   0  0  0  0  0  0
   -0.7464    1.4164    0.0355 C   0  0  0  0  0  0
   -2.2358    1.1186    0.0418 C   0  0  0  0  0  0
   -2.9206    0.9763    1.2532 C   0  0  0  0  0  0
   -4.9761    0.5551    0.0530 C   0  0  0  0  0  0
   -4.2972    0.6921   -1.1581 C   0  0  0  0  0  0
   -4.2878    0.6961    1.2584 C   0  0  0  0  0  0
   -2.9300    0.9724   -1.1640 C   0  0  0  0  0  0
    4.3502    2.5605   -0.1103 C   0  0  0  0  0  0
    3.9675    3.6134   -0.9470 C   0  0  0  0  0  0
    4.7044    4.7907   -1.0364 C   0  0  0  0  0  0
    5.5108    2.6888    0.6647 C   0  0  0  0  0  0
    6.2852    3.8601    0.6049 C   0  0  0  0  0  0
    5.8623    4.9079   -0.2582 C   0  0  0  0  0  0
    6.9591    6.2769   -0.1931 S   0  0  0  0  0  0
    7.9739    5.4551    0.9869 C   0  0  0  0  0  0
    7.4827    4.1945    1.2959 C   0  0  0  0  0  0
    9.1201    6.0500    1.4806 C   0  0  0  0  0  0
    9.1376    7.3621    1.6794 N   0  0  0  0  0  0
   10.1691    5.2825    1.7476 N   0  3  0  0  0  0
    3.5338    1.3141   -0.0448 C   0  0  0  0  0  0
    4.1477    0.0548   -0.0174 C   0  0  0  0  0  0
    1.9963   -1.0324    0.0703 C   0  0  0  0  0  0
    1.3515    0.2047    0.0435 C   0  0  0  0  0  0
    3.3864   -1.1106    0.0403 C   0  0  0  0  0  0
    2.1327    1.3721   -0.0113 C   0  0  0  0  0  0
   -4.9637    0.5532   -2.3263 F   0  0  0  0  0  0
   -0.4943    2.0375    0.8974 H   0  0  0  0  0  0
   -0.4937    1.9871   -0.8604 H   0  0  0  0  0  0
   -2.3951    1.0807    2.1915 H   0  0  0  0  0  0
   -6.0342    0.3386    0.0578 H   0  0  0  0  0  0
   -4.8131    0.5874    2.1958 H   0  0  0  0  0  0
   -2.4113    1.0736   -2.1063 H   0  0  0  0  0  0
    3.0784    3.5195   -1.5539 H   0  0  0  0  0  0
    4.3880    5.5885   -1.6929 H   0  0  0  0  0  0
    5.8110    1.8829    1.3186 H   0  0  0  0  0  0
    7.9607    3.5271    1.9977 H   0  0  0  0  0  0
    9.9703    7.8062    2.0379 H   0  0  0  0  0  0
    8.3165    7.9112    1.4698 H   0  0  0  0  0  0
   11.0171    5.6958    2.1069 H   0  0  0  0  0  0
    5.2245   -0.0282   -0.0483 H   0  0  0  0  0  0
    1.4138   -1.9415    0.1136 H   0  0  0  0  0  0
    3.8737   -2.0743    0.0588 H   0  0  0  0  0  0
    1.6569    2.3410   -0.0234 H   0  0  0  0  0  0
   10.1176    4.2888    1.5777 H   0  0  0  0  0  0
  1  2  1  0  0  0
  1 24  1  0  0  0
  2  3  1  0  0  0
  2 28  1  0  0  0
  2 29  1  0  0  0
  3  8  2  0  0  0
  3  4  1  0  0  0
  4  7  2  0  0  0
  4 30  1  0  0  0
  5  7  1  0  0  0
  5  6  2  0  0  0
  5 31  1  0  0  0
  6  8  1  0  0  0
  6 27  1  0  0  0
  7 32  1  0  0  0
  8 33  1  0  0  0
  9 10  2  0  0  0
  9 21  1  0  0  0
  9 12  1  0  0  0
 10 11  1  0  0  0
 10 34  1  0  0  0
 11 14  2  0  0  0
 11 35  1  0  0  0
 12 13  2  0  0  0
 12 36  1  0  0  0
 13 17  1  0  0  0
 13 14  1  0  0  0
 14 15  1  0  0  0
 15 16  1  0  0  0
 16 17  2  0  0  0
 16 18  1  0  0  0
 17 37  1  0  0  0
 18 19  1  0  0  0
 18 20  2  0  0  0
 19 38  1  0  0  0
 19 39  1  0  0  0
 20 40  1  0  0  0
 20 45  1  0  0  0
 21 22  2  0  0  0
 21 26  1  0  0  0
 22 25  1  0  0  0
 22 41  1  0  0  0
 23 24  1  0  0  0
 23 25  2  0  0  0
 23 42  1  0  0  0
 24 26  2  0  0  0
 25 43  1  0  0  0
 26 44  1  0  0  0
M  CHG  1  20   1
M  END
> <chembl_id>
CHEMBL592411

> <chembl_pref_name>
None

> <s_m_source_file>
sdf/inactives_sanitized.sdf

> <i_m_source_file_index>
156

> <i_lp_mmshare_version>
49012

> <i_m_ct_stereo_status>
1

> <i_f3d_flags>
0

> <s_epik_input>
W2NIXTFjKEYpW2NIXVtjSF1bY0hdYzFbQ0gyXU9jKFtjSF0yKVtjSF1bY0hdW2NIXWMyLWMoW2NIXTMpW2NIXVtjSF1jKGMzNClzYyhbY0hdNCkvQyhbTkgyXSk9Ti9bSF0=

> <s_epik_cmdline>
J2VwaWtfcHl0aG9uJywgJy1waHQnLCAnMC41JywgJy1waCcsICc3LjUnLCAnLW50JywgJy1tYScsICcyMDAnLCAnLWltYWUnLCAnPGluZmlsZS5tYWU+JywgJy1vbWFlJywgJzxvdXRmaWxlLm1hZT4n

> <r_lp_tautomer_probability>
1

> <r_epik_Ionization_Penalty>
  0.0095

> <r_epik_Ionization_Penalty_Charging>
  0.0095

> <r_epik_Ionization_Penalty_Neutral>
  0.0000

> <r_epik_State_Penalty>
 -0.0000

> <r_epik_Charging_Adjusted_Penalty>
0.00945881282357717

> <i_epik_Tot_Q>
1

> <i_epik_Tot_abs_Q>
1

> <s_epik_Chemistry_Notes>
This compound has an imine and may undergo hydrolysis.

> <s_lp_Force_Field>
OPLS3e

> <r_lp_Energy>
32.119497

> <b_lp_Chiralities_Consistent>
1

> <s_lp_Variant>
sdf/inactives_sanitized.sdf:156-1

$$$$
sdf/inactives_sanitized.sdf:157
                    3D
 Schrodinger Suite 2020-1.
 71 74  0  0  1  0            999 V2000
   -5.3084    0.9621    0.5396 C   0  0  0  0  0  0
   -5.4088    1.5667    1.9602 C   0  0  2  0  0  0
   -4.3236    0.9225    2.8619 C   0  0  0  0  0  0
   -2.9089    1.1212    2.2745 C   0  0  0  0  0  0
   -2.8489    0.4876    0.8574 C   0  0  1  0  0  0
   -3.9012    1.1626   -0.0649 C   0  0  0  0  0  0
   -6.8408    1.4180    2.5204 C   0  0  0  0  0  0
   -6.9596    2.0802    3.8979 N   0  3  0  0  0  0
   -1.4444    0.7382    0.2675 C   0  0  0  0  0  0
   -0.7237   -0.3526   -0.0526 N   0  0  0  0  0  0
   -1.0286    1.8886    0.1089 O   0  0  0  0  0  0
    0.6338   -0.3529   -0.6159 C   0  0  2  0  0  0
    0.9636   -1.6608   -1.3478 C   0  0  0  0  0  0
    1.6990   -0.0162    0.4624 C   0  0  0  0  0  0
    3.0993    0.1950   -0.1023 C   0  0  0  0  0  0
    4.0539   -0.8219   -0.0071 C   0  0  0  0  0  0
    5.3224   -0.6374   -0.5505 C   0  0  0  0  0  0
    5.6330    0.5636   -1.1848 C   0  0  0  0  0  0
    4.6875    1.5827   -1.2794 C   0  0  0  0  0  0
    3.4186    1.3986   -0.7366 C   0  0  0  0  0  0
    0.4665   -2.8181   -0.8300 N   0  0  0  0  0  0
    0.7600   -3.9780   -1.4679 C   0  0  0  0  0  0
    1.5454   -4.0323   -2.6199 C   0  0  0  0  0  0
    2.0582   -2.8434   -3.1584 C   0  0  0  0  0  0
    1.7436   -1.6410   -2.5100 C   0  0  0  0  0  0
    2.9204   -2.8533   -4.3731 C   0  0  0  0  0  0
    4.0506   -2.0310   -4.4479 C   0  0  0  0  0  0
    3.4220   -3.6937   -6.5945 C   0  0  0  0  0  0
    2.6183   -3.6845   -5.4576 C   0  0  0  0  0  0
    4.5497   -2.8628   -6.6615 C   0  0  0  0  0  0
    4.8592   -2.0364   -5.5806 C   0  0  0  0  0  0
    5.4248   -2.7989   -7.7594 N   0  0  0  0  0  0
    5.3354   -3.4174   -9.0029 C   0  0  0  0  0  0
    6.4216   -3.0749   -9.7248 O   0  0  0  0  0  0
    4.4334   -4.1519   -9.4115 O   0  0  0  0  0  0
    6.5979   -3.5579  -11.0497 C   0  0  0  0  0  0
   -5.5675   -0.0983    0.5632 H   0  0  0  0  0  0
   -6.0594    1.4167   -0.1086 H   0  0  0  0  0  0
   -5.1792    2.6307    1.8698 H   0  0  0  0  0  0
   -4.3673    1.3390    3.8687 H   0  0  0  0  0  0
   -4.5332   -0.1406    2.9937 H   0  0  0  0  0  0
   -2.7408    2.2004    2.2489 H   0  0  0  0  0  0
   -2.2161    0.6281    2.9591 H   0  0  0  0  0  0
   -3.0017   -0.5933    0.9027 H   0  0  0  0  0  0
   -3.9183    0.6990   -1.0528 H   0  0  0  0  0  0
   -3.7528    2.2425   -0.1357 H   0  0  0  0  0  0
   -7.5892    1.9309    1.9149 H   0  0  0  0  0  0
   -7.1369    0.3805    2.6816 H   0  0  0  0  0  0
   -7.9005    1.9816    4.2520 H   0  0  0  0  0  0
   -6.7388    3.0638    3.8308 H   0  0  0  0  0  0
   -1.1328   -1.2628    0.1020 H   0  0  0  0  0  0
    0.6595    0.4313   -1.3774 H   0  0  0  0  0  0
    1.4213    0.8936    0.9971 H   0  0  0  0  0  0
    1.7186   -0.7926    1.2296 H   0  0  0  0  0  0
    3.8113   -1.7571    0.4766 H   0  0  0  0  0  0
    6.0609   -1.4225   -0.4825 H   0  0  0  0  0  0
    6.6168    0.7060   -1.6072 H   0  0  0  0  0  0
    4.9364    2.5103   -1.7734 H   0  0  0  0  0  0
    2.6828    2.1860   -0.8159 H   0  0  0  0  0  0
    0.3569   -4.8810   -1.0339 H   0  0  0  0  0  0
    1.7589   -4.9871   -3.0782 H   0  0  0  0  0  0
    2.1152   -0.7011   -2.8928 H   0  0  0  0  0  0
    4.3126   -1.3850   -3.6220 H   0  0  0  0  0  0
    3.1463   -4.3556   -7.3991 H   0  0  0  0  0  0
    1.7505   -4.3274   -5.4274 H   0  0  0  0  0  0
    5.7264   -1.3917   -5.6100 H   0  0  0  0  0  0
    6.2360   -2.2143   -7.6208 H   0  0  0  0  0  0
    7.5332   -3.1781  -11.4608 H   0  0  0  0  0  0
    5.7837   -3.2296  -11.6975 H   0  0  0  0  0  0
    6.6370   -4.6479  -11.0678 H   0  0  0  0  0  0
   -6.3200    1.6469    4.5487 H   0  0  0  0  0  0
  1  2  1  0  0  0
  1  6  1  0  0  0
  1 37  1  0  0  0
  1 38  1  0  0  0
  2  3  1  0  0  0
  2  7  1  0  0  0
  2 39  1  0  0  0
  3  4  1  0  0  0
  3 40  1  0  0  0
  3 41  1  0  0  0
  4  5  1  0  0  0
  4 42  1  0  0  0
  4 43  1  0  0  0
  5  6  1  0  0  0
  5  9  1  0  0  0
  5 44  1  0  0  0
  6 45  1  0  0  0
  6 46  1  0  0  0
  7  8  1  0  0  0
  7 47  1  0  0  0
  7 48  1  0  0  0
  8 49  1  0  0  0
  8 50  1  0  0  0
  8 71  1  0  0  0
  9 10  1  0  0  0
  9 11  2  0  0  0
 10 12  1  0  0  0
 10 51  1  0  0  0
 12 13  1  0  0  0
 12 14  1  0  0  0
 12 52  1  0  0  0
 13 21  2  0  0  0
 13 25  1  0  0  0
 14 15  1  0  0  0
 14 53  1  0  0  0
 14 54  1  0  0  0
 15 16  2  0  0  0
 15 20  1  0  0  0
 16 17  1  0  0  0
 16 55  1  0  0  0
 17 18  2  0  0  0
 17 56  1  0  0  0
 18 19  1  0  0  0
 18 57  1  0  0  0
 19 20  2  0  0  0
 19 58  1  0  0  0
 20 59  1  0  0  0
 21 22  1  0  0  0
 22 23  2  0  0  0
 22 60  1  0  0  0
 23 24  1  0  0  0
 23 61  1  0  0  0
 24 25  2  0  0  0
 24 26  1  0  0  0
 25 62  1  0  0  0
 26 27  2  0  0  0
 26 29  1  0  0  0
 27 31  1  0  0  0
 27 63  1  0  0  0
 28 30  1  0  0  0
 28 29  2  0  0  0
 28 64  1  0  0  0
 29 65  1  0  0  0
 30 31  2  0  0  0
 30 32  1  0  0  0
 31 66  1  0  0  0
 32 33  1  0  0  0
 32 67  1  0  0  0
 33 34  1  0  0  0
 33 35  2  0  0  0
 34 36  1  0  0  0
 36 68  1  0  0  0
 36 69  1  0  0  0
 36 70  1  0  0  0
M  CHG  1   8   1
M  END
> <chembl_id>
CHEMBL3781788

> <chembl_pref_name>
None

> <i_m_ct_stereo_status>
1

> <s_m_source_file>
sdf/inactives_sanitized.sdf

> <i_m_source_file_index>
157

> <i_lp_mmshare_version>
49012

> <i_f3d_flags>
0

> <s_epik_input>
W05IMl1bQ0gyXVtDQEBIXTFbQ0gyXVtDSDJdW0NASF0oW0NIMl1bQ0gyXTEpQyg9TylbTkhdW0NAQEhdKFtDSDJdYzJbY0hdW2NIXVtjSF1bY0hdW2NIXTIpYzNuW2NIXVtjSF1jKFtjSF0zKS1jNFtjSF1bY0hdYyhbY0hdW2NIXTQpW05IXUMoPU8pT1tDSDNd

> <s_epik_cmdline>
J2VwaWtfcHl0aG9uJywgJy1waHQnLCAnMC41JywgJy1waCcsICc3LjUnLCAnLW50JywgJy1tYScsICcyMDAnLCAnLWltYWUnLCAnPGluZmlsZS5tYWU+JywgJy1vbWFlJywgJzxvdXRmaWxlLm1hZT4n

> <r_lp_tautomer_probability>
1

> <r_epik_Ionization_Penalty>
  0.0071

> <r_epik_Ionization_Penalty_Charging>
  0.0011

> <r_epik_Ionization_Penalty_Neutral>
  0.0060

> <r_epik_State_Penalty>
 -0.0000

> <r_epik_Charging_Adjusted_Penalty>
0.00108323456606225

> <i_epik_Tot_Q>
1

> <i_epik_Tot_abs_Q>
1

> <s_epik_Chemistry_Notes>
This compound has an ester and may undergo hydrolysis at high or low pH.

> <s_lp_Force_Field>
OPLS3e

> <r_lp_Energy>
53.919916

> <b_lp_Chiralities_Consistent>
1

> <s_lp_Variant>
sdf/inactives_sanitized.sdf:157-1

$$$$
 
                    3D
 Schrodinger Suite 2020-1.
 69 73  0  0  1  0            999 V2000
    0.1004    0.6439   -0.1112 N   0  0  0  0  0  0
    1.5669    0.7780   -0.2907 C   0  0  2  0  0  0
    2.2438    1.3408    0.9567 C   0  0  0  0  0  0
    1.9472    2.5614    1.5030 N   0  0  0  0  0  0
    2.8311    2.7418    2.5276 C   0  0  0  0  0  0
    3.6365    1.6050    2.5300 C   0  0  0  0  0  0
    3.2354    0.7557    1.5901 N   0  0  0  0  0  0
    1.9795    1.5715   -1.5629 C   0  0  0  0  0  0
    4.7978    1.3151    3.4358 C   0  0  0  0  0  0
    4.6784    1.7462    4.7630 C   0  0  0  0  0  0
    5.6869    1.5042    5.6927 C   0  0  0  0  0  0
    6.8447    0.8199    5.3222 C   0  0  0  0  0  0
    6.9830    0.3864    3.9953 C   0  0  0  0  0  0
    5.9811    0.6426    3.0531 C   0  0  0  0  0  0
    7.8003    0.6199    6.3331 N   0  0  0  0  0  0
    9.0338   -0.0223    6.2762 C   0  0  0  0  0  0
    9.5999    0.0420    7.4984 O   0  0  0  0  0  0
   10.8797   -0.5262    7.7392 C   0  0  0  0  0  0
    9.5522   -0.5668    5.2991 O   0  0  0  0  0  0
    3.4594    1.5426   -1.9283 C   0  0  0  0  0  0
    4.3471    0.5931   -1.5797 C   0  0  0  0  0  0
    5.8420    0.6620   -1.8415 C   0  0  0  0  0  0
    6.7242    0.2265   -0.6468 C   0  0  0  0  0  0
    6.4367    0.9603    0.6755 C   0  0  0  0  0  0
    6.4303    2.1928    0.7050 O   0  0  0  0  0  0
    6.2172    0.1768    1.7517 N   0  0  0  0  0  0
   -0.3774   -0.4911    0.4982 C   0  0  0  0  0  0
   -1.8889   -0.4634    0.8154 C   0  0  0  0  0  0
   -2.6789    0.0684   -0.3990 C   0  0  2  0  0  0
   -2.2126    1.5067   -0.7094 C   0  0  0  0  0  0
   -0.7697    1.8403   -0.2548 C   0  0  0  0  0  0
    0.3152   -1.4654    0.7983 O   0  0  0  0  0  0
   -4.1983   -0.0120   -0.2229 C   0  0  0  0  0  0
   -4.8198    0.5331    0.9089 C   0  0  0  0  0  0
   -6.2031    0.4463    1.0673 C   0  0  0  0  0  0
   -6.9784   -0.1886    0.0978 C   0  0  0  0  0  0
   -6.3701   -0.7381   -1.0309 C   0  0  0  0  0  0
   -4.9860   -0.6510   -1.1893 C   0  0  0  0  0  0
   -7.3286   -1.5258   -2.2309 Cl  0  0  0  0  0  0
    1.9539   -0.2292   -0.4532 H   0  0  0  0  0  0
    1.2361    3.2079    1.1929 H   0  0  0  0  0  0
    2.8274    3.6430    3.1230 H   0  0  0  0  0  0
    1.4169    1.2233   -2.4300 H   0  0  0  0  0  0
    1.7209    2.6227   -1.4349 H   0  0  0  0  0  0
    3.7898    2.2660    5.0908 H   0  0  0  0  0  0
    5.5557    1.8496    6.7084 H   0  0  0  0  0  0
    7.8657   -0.1403    3.6689 H   0  0  0  0  0  0
    7.5493    1.0014    7.2331 H   0  0  0  0  0  0
   11.1578   -0.3820    8.7832 H   0  0  0  0  0  0
   11.6407   -0.0536    7.1164 H   0  0  0  0  0  0
   10.8790   -1.5975    7.5327 H   0  0  0  0  0  0
    3.8118    2.4023   -2.4802 H   0  0  0  0  0  0
    4.0203   -0.2730   -1.0238 H   0  0  0  0  0  0
    6.0574    0.0096   -2.6882 H   0  0  0  0  0  0
    6.1138    1.6708   -2.1578 H   0  0  0  0  0  0
    6.6070   -0.8493   -0.5013 H   0  0  0  0  0  0
    7.7753    0.3765   -0.8960 H   0  0  0  0  0  0
    6.3292   -0.8209    1.6467 H   0  0  0  0  0  0
   -2.2189   -1.4710    1.0740 H   0  0  0  0  0  0
   -2.0417    0.1506    1.7042 H   0  0  0  0  0  0
   -2.4404   -0.5563   -1.2639 H   0  0  0  0  0  0
   -2.2379    1.6218   -1.7940 H   0  0  0  0  0  0
   -2.9021    2.2634   -0.3320 H   0  0  0  0  0  0
   -0.8965    2.1881    0.7718 H   0  0  0  0  0  0
   -0.3020    2.6821   -0.7625 H   0  0  0  0  0  0
   -4.2338    1.0301    1.6679 H   0  0  0  0  0  0
   -6.6743    0.8709    1.9415 H   0  0  0  0  0  0
   -8.0493   -0.2534    0.2240 H   0  0  0  0  0  0
   -4.5262   -1.0808   -2.0678 H   0  0  0  0  0  0
  1  2  1  0  0  0
  1 27  1  0  0  0
  1 31  1  0  0  0
  2  3  1  0  0  0
  2  8  1  0  0  0
  2 40  1  0  0  0
  3  4  1  0  0  0
  3  7  2  0  0  0
  4  5  1  0  0  0
  4 41  1  0  0  0
  5  6  2  0  0  0
  5 42  1  0  0  0
  6  7  1  0  0  0
  6  9  1  0  0  0
  8 20  1  0  0  0
  8 43  1  0  0  0
  8 44  1  0  0  0
  9 10  2  0  0  0
  9 14  1  0  0  0
 10 11  1  0  0  0
 10 45  1  0  0  0
 11 12  2  0  0  0
 11 46  1  0  0  0
 12 13  1  0  0  0
 12 15  1  0  0  0
 13 14  2  0  0  0
 13 47  1  0  0  0
 14 26  1  0  0  0
 15 16  1  0  0  0
 15 48  1  0  0  0
 16 17  1  0  0  0
 16 19  2  0  0  0
 17 18  1  0  0  0
 18 49  1  0  0  0
 18 50  1  0  0  0
 18 51  1  0  0  0
 20 21  2  0  0  0
 20 52  1  0  0  0
 21 22  1  0  0  0
 21 53  1  0  0  0
 22 23  1  0  0  0
 22 54  1  0  0  0
 22 55  1  0  0  0
 23 24  1  0  0  0
 23 56  1  0  0  0
 23 57  1  0  0  0
 24 25  2  0  0  0
 24 26  1  0  0  0
 26 58  1  0  0  0
 27 28  1  0  0  0
 27 32  2  0  0  0
 28 29  1  0  0  0
 28 59  1  0  0  0
 28 60  1  0  0  0
 29 30  1  0  0  0
 29 33  1  0  0  0
 29 61  1  0  0  0
 30 31  1  0  0  0
 30 62  1  0  0  0
 30 63  1  0  0  0
 31 64  1  0  0  0
 31 65  1  0  0  0
 33 34  2  0  0  0
 33 38  1  0  0  0
 34 35  1  0  0  0
 34 66  1  0  0  0
 35 36  2  0  0  0
 35 67  1  0  0  0
 36 37  1  0  0  0
 36 68  1  0  0  0
 37 38  2  0  0  0
 37 39  1  0  0  0
 38 69  1  0  0  0
M  END
> <chembl_id>
CHEMBL4438562

> <chembl_pref_name>
None

> <i_m_ct_stereo_status>
1

> <s_m_source_file>
sdf/inactives_sanitized.sdf

> <i_m_source_file_index>
158

> <i_lp_mmshare_version>
49012

> <i_f3d_flags>
0

> <s_epik_input>
W2NIXTFjKENsKVtjSF1bY0hdW2NIXWMxW0NAQEhdKFtDSDJdW0NIMl0yKVtDSDJdQyg9TylOMltDQEhdM1tDSDJdL1tDSF09W0NIXS9bQ0gyXVtDSDJdQyg9TylbTkhdYyhjNGMobjUpW2NIXVtuSF1jMzUpW2NIXWMoW2NIXVtjSF00KVtOSF1DKD1PKU9bQ0gzXQ==

> <s_epik_cmdline>
J2VwaWtfcHl0aG9uJywgJy1waHQnLCAnMC41JywgJy1waCcsICc3LjUnLCAnLW50JywgJy1tYScsICcyMDAnLCAnLWltYWUnLCAnPGluZmlsZS5tYWU+JywgJy1vbWFlJywgJzxvdXRmaWxlLm1hZT4n

> <r_lp_tautomer_probability>
0.499999999999999

> <r_epik_Ionization_Penalty>
  0.1081

> <r_epik_Ionization_Penalty_Charging>
  0.1081

> <r_epik_Ionization_Penalty_Neutral>
  0.0000

> <r_epik_State_Penalty>
  0.4503

> <r_epik_Charging_Adjusted_Penalty>
0.558390358810021

> <i_epik_Tot_Q>
0

> <i_epik_Tot_abs_Q>
0

> <s_epik_Chemistry_Notes>
This compound has an ester and may undergo hydrolysis at high or low pH.

> <s_lp_Force_Field>
OPLS3e

> <r_lp_Energy>
65.803246

> <b_lp_Chiralities_Consistent>
1

> <s_lp_Variant>
 -1

$$$$
 
                    3D
 Schrodinger Suite 2020-1.
 69 73  0  0  1  0            999 V2000
   -0.1119    0.0963    0.1112 N   0  0  0  0  0  0
    1.3661    0.2473    0.1220 C   0  0  2  0  0  0
    1.8839    0.7379    1.4729 C   0  0  0  0  0  0
    1.3313    1.6391    2.2535 N   0  0  0  0  0  0
    2.1974    1.8112    3.2413 C   0  0  0  0  0  0
    3.3552    1.0529    3.0872 C   0  0  0  0  0  0
    3.0944    0.3262    1.9605 N   0  0  0  0  0  0
    1.9455    1.0712   -1.0622 C   0  0  0  0  0  0
    4.6180    0.9486    3.8690 C   0  0  0  0  0  0
    4.4992    0.6743    5.2342 C   0  0  0  0  0  0
    5.6294    0.5673    6.0427 C   0  0  0  0  0  0
    6.9093    0.7496    5.4971 C   0  0  0  0  0  0
    7.0330    1.0323    4.1345 C   0  0  0  0  0  0
    5.9028    1.1287    3.3165 C   0  0  0  0  0  0
    8.1062    0.6661    6.2287 N   0  0  0  0  0  0
    8.2975    0.5294    7.6004 C   0  0  0  0  0  0
    9.6238    0.4862    7.8411 O   0  0  0  0  0  0
   10.1197    0.3596    9.1668 C   0  0  0  0  0  0
    7.4303    0.4643    8.4745 O   0  0  0  0  0  0
    3.4603    1.1885   -1.0274 C   0  0  0  0  0  0
    4.3206    0.4500   -1.7499 C   0  0  0  0  0  0
    5.8423    0.4833   -1.6449 C   0  0  0  0  0  0
    6.4690    1.2353   -0.4383 C   0  0  0  0  0  0
    6.1877    0.6197    0.9474 C   0  0  0  0  0  0
    6.0684   -0.6009    1.0737 O   0  0  0  0  0  0
    6.1041    1.4894    1.9751 N   0  0  0  0  0  0
   -0.6485   -1.0848    0.5667 C   0  0  0  0  0  0
   -2.1925   -1.1833    0.6141 C   0  0  0  0  0  0
   -2.9287   -0.2212   -0.3427 C   0  0  2  0  0  0
   -2.4231    1.1795    0.0074 C   0  0  0  0  0  0
   -0.9168    1.2865   -0.2740 C   0  0  0  0  0  0
    0.0358   -2.0358    0.9505 O   0  0  0  0  0  0
   -4.4495   -0.3334   -0.1932 C   0  0  0  0  0  0
   -5.2296   -0.7057   -1.2950 C   0  0  0  0  0  0
   -6.6160   -0.8085   -1.1795 C   0  0  0  0  0  0
   -7.2369   -0.5410    0.0399 C   0  0  0  0  0  0
   -6.4709   -0.1692    1.1446 C   0  0  0  0  0  0
   -5.0839   -0.0653    1.0285 C   0  0  0  0  0  0
   -7.2382    0.1635    2.6545 Cl  0  0  0  0  0  0
    1.7920   -0.7475   -0.0262 H   0  0  0  0  0  0
    2.0047    2.5105    4.0414 H   0  0  0  0  0  0
    1.6429    0.6086   -2.0030 H   0  0  0  0  0  0
    1.5455    2.0852   -1.0763 H   0  0  0  0  0  0
    3.5235    0.5332    5.6770 H   0  0  0  0  0  0
    5.4779    0.3387    7.0851 H   0  0  0  0  0  0
    8.0141    1.1859    3.7056 H   0  0  0  0  0  0
    8.9474    0.7376    5.6754 H   0  0  0  0  0  0
   11.2092    0.3312    9.1535 H   0  0  0  0  0  0
    9.7616   -0.5593    9.6333 H   0  0  0  0  0  0
    9.8098    1.2050    9.7828 H   0  0  0  0  0  0
    3.8413    1.9111   -0.3209 H   0  0  0  0  0  0
    3.9235   -0.2723   -2.4486 H   0  0  0  0  0  0
    6.1864   -0.5522   -1.6372 H   0  0  0  0  0  0
    6.2234    0.9088   -2.5737 H   0  0  0  0  0  0
    7.5525    1.2425   -0.5621 H   0  0  0  0  0  0
    6.1628    2.2828   -0.4577 H   0  0  0  0  0  0
    6.2421    2.4719    1.7888 H   0  0  0  0  0  0
   -2.4769   -2.2135    0.3938 H   0  0  0  0  0  0
   -2.4799   -1.0071    1.6516 H   0  0  0  0  0  0
   -2.6688   -0.4479   -1.3794 H   0  0  0  0  0  0
   -2.9426    1.9440   -0.5718 H   0  0  0  0  0  0
   -2.5966    1.4101    1.0600 H   0  0  0  0  0  0
   -0.4569    2.2169    0.0604 H   0  0  0  0  0  0
   -0.8126    1.3231   -1.3591 H   0  0  0  0  0  0
   -4.7649   -0.9161   -2.2474 H   0  0  0  0  0  0
   -7.2091   -1.0950   -2.0352 H   0  0  0  0  0  0
   -8.3108   -0.6223    0.1248 H   0  0  0  0  0  0
   -4.5030    0.2253    1.8916 H   0  0  0  0  0  0
    3.7186   -0.3384    1.5248 H   0  0  0  0  0  0
  1  2  1  0  0  0
  1 27  1  0  0  0
  1 31  1  0  0  0
  2  3  1  0  0  0
  2  8  1  0  0  0
  2 40  1  0  0  0
  3  4  2  0  0  0
  3  7  1  0  0  0
  4  5  1  0  0  0
  5  6  2  0  0  0
  5 41  1  0  0  0
  6  7  1  0  0  0
  6  9  1  0  0  0
  7 69  1  0  0  0
  8 20  1  0  0  0
  8 42  1  0  0  0
  8 43  1  0  0  0
  9 10  2  0  0  0
  9 14  1  0  0  0
 10 11  1  0  0  0
 10 44  1  0  0  0
 11 12  2  0  0  0
 11 45  1  0  0  0
 12 13  1  0  0  0
 12 15  1  0  0  0
 13 14  2  0  0  0
 13 46  1  0  0  0
 14 26  1  0  0  0
 15 16  1  0  0  0
 15 47  1  0  0  0
 16 17  1  0  0  0
 16 19  2  0  0  0
 17 18  1  0  0  0
 18 48  1  0  0  0
 18 49  1  0  0  0
 18 50  1  0  0  0
 20 21  2  0  0  0
 20 51  1  0  0  0
 21 22  1  0  0  0
 21 52  1  0  0  0
 22 23  1  0  0  0
 22 53  1  0  0  0
 22 54  1  0  0  0
 23 24  1  0  0  0
 23 55  1  0  0  0
 23 56  1  0  0  0
 24 25  2  0  0  0
 24 26  1  0  0  0
 26 57  1  0  0  0
 27 28  1  0  0  0
 27 32  2  0  0  0
 28 29  1  0  0  0
 28 58  1  0  0  0
 28 59  1  0  0  0
 29 30  1  0  0  0
 29 33  1  0  0  0
 29 60  1  0  0  0
 30 31  1  0  0  0
 30 61  1  0  0  0
 30 62  1  0  0  0
 31 63  1  0  0  0
 31 64  1  0  0  0
 33 34  2  0  0  0
 33 38  1  0  0  0
 34 35  1  0  0  0
 34 65  1  0  0  0
 35 36  2  0  0  0
 35 66  1  0  0  0
 36 37  1  0  0  0
 36 67  1  0  0  0
 37 38  2  0  0  0
 37 39  1  0  0  0
 38 68  1  0  0  0
M  END
> <chembl_id>
CHEMBL4438562

> <chembl_pref_name>
None

> <i_m_ct_stereo_status>
1

> <s_m_source_file>
sdf/inactives_sanitized.sdf

> <i_m_source_file_index>
158

> <i_lp_mmshare_version>
49012

> <i_f3d_flags>
0

> <s_epik_input>
W2NIXTFjKENsKVtjSF1bY0hdW2NIXWMxW0NAQEhdKFtDSDJdW0NIMl0yKVtDSDJdQyg9TylOMltDQEhdM1tDSDJdL1tDSF09W0NIXS9bQ0gyXVtDSDJdQyg9TylbTkhdYyhjNGMobjUpW2NIXVtuSF1jMzUpW2NIXWMoW2NIXVtjSF00KVtOSF1DKD1PKU9bQ0gzXQ==

> <s_epik_cmdline>
J2VwaWtfcHl0aG9uJywgJy1waHQnLCAnMC41JywgJy1waCcsICc3LjUnLCAnLW50JywgJy1tYScsICcyMDAnLCAnLWltYWUnLCAnPGluZmlsZS5tYWU+JywgJy1vbWFlJywgJzxvdXRmaWxlLm1hZT4n

> <r_lp_tautomer_probability>
0.499999999999999

> <r_epik_Ionization_Penalty>
  0.1236

> <r_epik_Ionization_Penalty_Charging>
  0.1236

> <r_epik_Ionization_Penalty_Neutral>
  0.0000

> <r_epik_State_Penalty>
  0.4813

> <r_epik_Charging_Adjusted_Penalty>
0.604880028709221

> <i_epik_Tot_Q>
0

> <i_epik_Tot_abs_Q>
0

> <s_epik_Chemistry_Notes>
This compound has an ester and may undergo hydrolysis at high or low pH.

> <s_lp_Force_Field>
OPLS3e

> <r_lp_Energy>
62.369929

> <b_lp_Chiralities_Consistent>
1

> <s_lp_Variant>
 -2

$$$$
sdf/inactives_sanitized.sdf:159
                    3D
 Schrodinger Suite 2020-1.
 74 79  0  0  1  0            999 V2000
    4.0642    0.1192   -5.9738 N   0  3  0  0  0  0
   -6.8475    2.3685    0.4941 C   0  0  0  0  0  0
   -7.3448    1.1283    0.1035 C   0  0  0  0  0  0
   -6.4751    0.1477   -0.3642 C   0  0  0  0  0  0
   -5.1085    0.4108   -0.4469 C   0  0  0  0  0  0
   -4.5844    1.6567   -0.0676 C   0  0  0  0  0  0
   -5.4739    2.6408    0.4224 C   0  0  0  0  0  0
   -5.0267    3.9040    0.8741 N   0  0  0  0  0  0
   -4.0246    4.2101    1.7670 C   0  0  0  0  0  0
   -3.9195    5.5046    1.9277 N   0  0  0  0  0  0
   -4.9025    6.0509    1.1084 N   0  0  0  0  0  0
   -5.5937    5.0461    0.4571 N   0  0  0  0  0  0
   -7.0895   -1.3915   -0.8467 Cl  0  0  0  0  0  0
   -3.1286    1.9115   -0.1917 C   0  0  0  0  0  0
   -2.1512    0.9793   -0.1727 C   0  0  0  0  0  0
   -0.7538    1.3243   -0.2890 C   0  0  0  0  0  0
    0.0678    0.2901   -0.0227 N   0  0  0  0  0  0
   -0.3525    2.4543   -0.5772 O   0  0  0  0  0  0
    1.5421    0.3308    0.0300 C   0  0  2  0  0  0
    2.0502    1.1667    1.2138 C   0  0  0  0  0  0
    2.2287    0.7070   -1.3222 C   0  0  0  0  0  0
    1.8320   -0.1306   -2.5621 C   0  0  0  0  0  0
    3.3146    1.6878    1.2991 N   0  0  0  0  0  0
    3.3774    2.3832    2.4741 C   0  0  0  0  0  0
    2.1178    2.2288    3.0568 C   0  0  0  0  0  0
    1.3483    1.4709    2.2844 N   0  0  0  0  0  0
    4.7973    3.2344    2.9401 Cl  0  0  0  0  0  0
    1.5933    2.7908    4.3423 C   0  0  0  0  0  0
    0.2305    3.0945    4.4802 C   0  0  0  0  0  0
    1.9635    3.5413    6.6198 C   0  0  0  0  0  0
    2.4502    3.0174    5.4246 C   0  0  0  0  0  0
   -1.4732    5.1417    9.2422 O   0  5  0  0  0  0
    2.1965    0.2980   -3.8023 N   0  0  0  0  0  0
    1.1862   -1.1675   -2.3925 O   0  0  0  0  0  0
    1.8086   -0.4612   -5.0104 C   0  0  0  0  0  0
    3.0874   -1.0327   -5.6598 C   0  0  0  0  0  0
    4.4083    0.8829   -4.6784 C   0  0  0  0  0  0
    3.1135    1.4330   -4.0401 C   0  0  0  0  0  0
    5.3454   -0.4279   -6.6330 C   0  0  0  0  0  0
    0.6085    3.8427    6.7447 C   0  0  0  0  0  0
   -0.2874    3.6229    5.6712 C   0  0  0  0  0  0
   -1.7661    3.9422    5.7863 C   0  0  0  0  0  0
   -2.1420    4.4910    7.0994 C   0  0  0  0  0  0
   -1.2265    4.6708    8.0733 C   0  0  0  0  0  0
    0.1073    4.3717    7.9465 N   0  0  0  0  0  0
   -2.5637    3.7556    4.8670 O   0  0  0  0  0  0
   -7.5359    3.1131    0.8681 H   0  0  0  0  0  0
   -8.4045    0.9295    0.1697 H   0  0  0  0  0  0
   -4.4594   -0.3630   -0.8297 H   0  0  0  0  0  0
   -3.4397    3.4359    2.2421 H   0  0  0  0  0  0
   -2.8523    2.9488   -0.3243 H   0  0  0  0  0  0
   -2.3836   -0.0691   -0.0447 H   0  0  0  0  0  0
   -0.3525   -0.5984    0.2072 H   0  0  0  0  0  0
    1.8286   -0.6989    0.2510 H   0  0  0  0  0  0
    2.0247    1.7599   -1.5190 H   0  0  0  0  0  0
    3.3096    0.6161   -1.2076 H   0  0  0  0  0  0
    4.0512    1.5989    0.6143 H   0  0  0  0  0  0
   -0.4323    2.9207    3.6435 H   0  0  0  0  0  0
    2.6409    3.7089    7.4447 H   0  0  0  0  0  0
    3.5008    2.7806    5.3524 H   0  0  0  0  0  0
    1.1002   -1.2634   -4.7977 H   0  0  0  0  0  0
    1.3036    0.2076   -5.7090 H   0  0  0  0  0  0
    3.5969   -1.7581   -5.0218 H   0  0  0  0  0  0
    2.8615   -1.5064   -6.6161 H   0  0  0  0  0  0
    4.9532    0.2094   -4.0132 H   0  0  0  0  0  0
    5.0735    1.6954   -4.9745 H   0  0  0  0  0  0
    2.6377    2.1422   -4.7190 H   0  0  0  0  0  0
    3.3602    1.9970   -3.1423 H   0  0  0  0  0  0
    5.8229   -1.1155   -5.9329 H   0  0  0  0  0  0
    5.9842    0.4280   -6.8552 H   0  0  0  0  0  0
    5.0441   -0.9344   -7.5511 H   0  0  0  0  0  0
   -3.1712    4.7574    7.2922 H   0  0  0  0  0  0
    0.7299    4.5345    8.7235 H   0  0  0  0  0  0
    3.6092    0.7589   -6.6104 H   0  0  0  0  0  0
  1 36  1  0  0  0
  1 37  1  0  0  0
  1 39  1  0  0  0
  1 74  1  0  0  0
  2  3  2  0  0  0
  2  7  1  0  0  0
  2 47  1  0  0  0
  3  4  1  0  0  0
  3 48  1  0  0  0
  4  5  2  0  0  0
  4 13  1  0  0  0
  5  6  1  0  0  0
  5 49  1  0  0  0
  6  7  2  0  0  0
  6 14  1  0  0  0
  7  8  1  0  0  0
  8  9  1  0  0  0
  8 12  1  0  0  0
  9 10  2  0  0  0
  9 50  1  0  0  0
 10 11  1  0  0  0
 11 12  2  0  0  0
 14 15  2  0  0  0
 14 51  1  0  0  0
 15 16  1  0  0  0
 15 52  1  0  0  0
 16 17  1  0  0  0
 16 18  2  0  0  0
 17 19  1  0  0  0
 17 53  1  0  0  0
 19 20  1  0  0  0
 19 21  1  0  0  0
 19 54  1  0  0  0
 20 23  1  0  0  0
 20 26  2  0  0  0
 21 22  1  0  0  0
 21 55  1  0  0  0
 21 56  1  0  0  0
 22 33  1  0  0  0
 22 34  2  0  0  0
 23 24  1  0  0  0
 23 57  1  0  0  0
 24 25  2  0  0  0
 24 27  1  0  0  0
 25 26  1  0  0  0
 25 28  1  0  0  0
 28 29  1  0  0  0
 28 31  2  0  0  0
 29 41  2  0  0  0
 29 58  1  0  0  0
 30 40  2  0  0  0
 30 31  1  0  0  0
 30 59  1  0  0  0
 31 60  1  0  0  0
 32 44  1  0  0  0
 33 35  1  0  0  0
 33 38  1  0  0  0
 35 36  1  0  0  0
 35 61  1  0  0  0
 35 62  1  0  0  0
 36 63  1  0  0  0
 36 64  1  0  0  0
 37 38  1  0  0  0
 37 65  1  0  0  0
 37 66  1  0  0  0
 38 67  1  0  0  0
 38 68  1  0  0  0
 39 69  1  0  0  0
 39 70  1  0  0  0
 39 71  1  0  0  0
 40 41  1  0  0  0
 40 45  1  0  0  0
 41 42  1  0  0  0
 42 43  1  0  0  0
 42 46  2  0  0  0
 43 44  2  0  0  0
 43 72  1  0  0  0
 44 45  1  0  0  0
 45 73  1  0  0  0
M  CHG  2   1   1  32  -1
M  END
> <chembl_id>
CHEMBL3580759

> <chembl_pref_name>
None

> <i_m_ct_stereo_status>
1

> <s_m_source_file>
sdf/inactives_sanitized.sdf

> <i_m_source_file_index>
159

> <i_lp_mmshare_version>
49012

> <i_f3d_flags>
0

> <s_epik_input>
Tz1jKFtuSF0xKVtjSF1jKFtPSF0pYyhjMTIpW2NIXWMoW2NIXVtjSF0yKS1jKG4zKWMoQ2wpW25IXWMzW0NASF0oW0NIMl1DKD1PKU4oW0NIMl1bQ0gyXTQpW0NIMl1bQ0gyXU40W0NIM10pW05IXUMoPU8pXFtDSF09W0NIXVxjKFtjSF01KWMoW2NIXVtjSF1jNUNsKS1uNltjSF1ubm42

> <s_epik_cmdline>
J2VwaWtfcHl0aG9uJywgJy1waHQnLCAnMC41JywgJy1waCcsICc3LjUnLCAnLW50JywgJy1tYScsICcyMDAnLCAnLWltYWUnLCAnPGluZmlsZS5tYWU+JywgJy1vbWFlJywgJzxvdXRmaWxlLm1hZT4n

> <r_lp_tautomer_probability>
0.499999999999999

> <r_epik_Ionization_Penalty>
  0.3412

> <r_epik_Ionization_Penalty_Charging>
  0.3397

> <r_epik_Ionization_Penalty_Neutral>
  0.0015

> <r_epik_State_Penalty>
  0.3293

> <r_epik_Charging_Adjusted_Penalty>
0.669039648063838

> <i_epik_Tot_Q>
0

> <i_epik_Tot_abs_Q>
2

> <s_lp_Force_Field>
OPLS3e

> <r_lp_Energy>
43.148023

> <b_lp_Chiralities_Consistent>
1

> <s_lp_Variant>
sdf/inactives_sanitized.sdf:159-1

$$$$
sdf/inactives_sanitized.sdf:159
                    3D
 Schrodinger Suite 2020-1.
 73 78  0  0  1  0            999 V2000
    3.9413   -1.0710    6.0427 N   0  0  0  0  0  0
   -7.0244    1.9451   -0.0778 C   0  0  0  0  0  0
   -7.4353    0.6399    0.1736 C   0  0  0  0  0  0
   -6.4966   -0.3858    0.2140 C   0  0  0  0  0  0
   -5.1464   -0.1034    0.0107 C   0  0  0  0  0  0
   -4.7021    1.2058   -0.2417 C   0  0  0  0  0  0
   -5.6720    2.2358   -0.2964 C   0  0  0  0  0  0
   -5.3452    3.5828   -0.5548 N   0  0  0  0  0  0
   -5.6200    4.6951    0.2055 C   0  0  0  0  0  0
   -5.2155    5.7840   -0.3972 N   0  0  0  0  0  0
   -4.6790    5.3494   -1.6057 N   0  0  0  0  0  0
   -4.7794    3.9739   -1.7055 N   0  0  0  0  0  0
   -7.0036   -2.0070    0.5210 Cl  0  0  0  0  0  0
   -3.2471    1.4792   -0.4013 C   0  0  0  0  0  0
   -2.2300    0.6444   -0.0887 C   0  0  0  0  0  0
   -0.8428    0.9936   -0.2980 C   0  0  0  0  0  0
    0.0113    0.0646    0.1710 N   0  0  0  0  0  0
   -0.4761    2.0405   -0.8373 O   0  0  0  0  0  0
    1.4768    0.1079    0.0517 C   0  0  2  0  0  0
    1.9169   -0.5337   -1.2649 C   0  0  0  0  0  0
    2.1732   -0.5288    1.2918 C   0  0  0  0  0  0
    1.8899    0.1326    2.6634 C   0  0  0  0  0  0
    1.5344   -0.0534   -2.4890 N   0  0  0  0  0  0
    2.0629   -0.8958   -3.4247 C   0  0  0  0  0  0
    2.7603   -1.8612   -2.6937 C   0  0  0  0  0  0
    2.6436   -1.6228   -1.3909 N   0  0  0  0  0  0
    1.7865   -0.6561   -5.1054 Cl  0  0  0  0  0  0
    3.5424   -3.0362   -3.1960 C   0  0  0  0  0  0
    3.6418   -4.2093   -2.4333 C   0  0  0  0  0  0
    4.9209   -4.0649   -4.9085 C   0  0  0  0  0  0
    4.1938   -2.9765   -4.4330 C   0  0  0  0  0  0
    6.5375   -8.3590   -4.4783 O   0  5  0  0  0  0
    2.2700   -0.5081    3.8040 N   0  0  0  0  0  0
    1.2826    1.2063    2.6840 O   0  0  0  0  0  0
    3.0937   -1.7375    3.7966 C   0  0  0  0  0  0
    4.3273   -1.5251    4.7056 C   0  0  0  0  0  0
    3.2094    0.1946    5.9739 C   0  0  0  0  0  0
    1.9232    0.0567    5.1275 C   0  0  0  0  0  0
    5.1227   -0.9240    6.8871 C   0  0  0  0  0  0
    5.0074   -5.2275   -4.1456 C   0  0  0  0  0  0
    4.3681   -5.3206   -2.8862 C   0  0  0  0  0  0
    4.4542   -6.5762   -2.0391 C   0  0  0  0  0  0
    5.2522   -7.6453   -2.6614 C   0  0  0  0  0  0
    5.8293   -7.4780   -3.8688 C   0  0  0  0  0  0
    5.7374   -6.3315   -4.6180 N   0  0  0  0  0  0
    3.9066   -6.6794   -0.9412 O   0  0  0  0  0  0
   -7.7675    2.7295   -0.1132 H   0  0  0  0  0  0
   -8.4821    0.4268    0.3335 H   0  0  0  0  0  0
   -4.4491   -0.9262    0.0510 H   0  0  0  0  0  0
   -6.1069    4.6093    1.1660 H   0  0  0  0  0  0
   -2.9901    2.4408   -0.8185 H   0  0  0  0  0  0
   -2.4161   -0.3292    0.3417 H   0  0  0  0  0  0
   -0.3778   -0.8225    0.4547 H   0  0  0  0  0  0
    1.8057    1.1503    0.0264 H   0  0  0  0  0  0
    1.8911   -1.5820    1.3387 H   0  0  0  0  0  0
    3.2526   -0.4962    1.1357 H   0  0  0  0  0  0
    0.9599    0.7590   -2.6644 H   0  0  0  0  0  0
    3.1407   -4.2551   -1.4761 H   0  0  0  0  0  0
    5.4162   -3.9991   -5.8666 H   0  0  0  0  0  0
    4.1507   -2.0812   -5.0344 H   0  0  0  0  0  0
    2.5005   -2.5684    4.1799 H   0  0  0  0  0  0
    3.4574   -2.0180    2.8093 H   0  0  0  0  0  0
    4.8977   -2.4524    4.7761 H   0  0  0  0  0  0
    4.9762   -0.7666    4.2622 H   0  0  0  0  0  0
    2.9553    0.5349    6.9788 H   0  0  0  0  0  0
    3.8619    0.9446    5.5216 H   0  0  0  0  0  0
    1.4440    1.0347    5.0659 H   0  0  0  0  0  0
    1.2294   -0.6166    5.6325 H   0  0  0  0  0  0
    4.8390   -0.6207    7.8958 H   0  0  0  0  0  0
    5.8130   -0.1778    6.4893 H   0  0  0  0  0  0
    5.6572   -1.8713    6.9702 H   0  0  0  0  0  0
    5.3813   -8.5856   -2.1450 H   0  0  0  0  0  0
    6.1964   -6.2844   -5.5152 H   0  0  0  0  0  0
  1 36  1  0  0  0
  1 37  1  0  0  0
  1 39  1  0  0  0
  2  3  2  0  0  0
  2  7  1  0  0  0
  2 47  1  0  0  0
  3  4  1  0  0  0
  3 48  1  0  0  0
  4  5  2  0  0  0
  4 13  1  0  0  0
  5  6  1  0  0  0
  5 49  1  0  0  0
  6  7  2  0  0  0
  6 14  1  0  0  0
  7  8  1  0  0  0
  8  9  1  0  0  0
  8 12  1  0  0  0
  9 10  2  0  0  0
  9 50  1  0  0  0
 10 11  1  0  0  0
 11 12  2  0  0  0
 14 15  2  0  0  0
 14 51  1  0  0  0
 15 16  1  0  0  0
 15 52  1  0  0  0
 16 17  1  0  0  0
 16 18  2  0  0  0
 17 19  1  0  0  0
 17 53  1  0  0  0
 19 20  1  0  0  0
 19 21  1  0  0  0
 19 54  1  0  0  0
 20 23  1  0  0  0
 20 26  2  0  0  0
 21 22  1  0  0  0
 21 55  1  0  0  0
 21 56  1  0  0  0
 22 33  1  0  0  0
 22 34  2  0  0  0
 23 24  1  0  0  0
 23 57  1  0  0  0
 24 25  2  0  0  0
 24 27  1  0  0  0
 25 26  1  0  0  0
 25 28  1  0  0  0
 28 29  1  0  0  0
 28 31  2  0  0  0
 29 41  2  0  0  0
 29 58  1  0  0  0
 30 40  2  0  0  0
 30 31  1  0  0  0
 30 59  1  0  0  0
 31 60  1  0  0  0
 32 44  1  0  0  0
 33 35  1  0  0  0
 33 38  1  0  0  0
 35 36  1  0  0  0
 35 61  1  0  0  0
 35 62  1  0  0  0
 36 63  1  0  0  0
 36 64  1  0  0  0
 37 38  1  0  0  0
 37 65  1  0  0  0
 37 66  1  0  0  0
 38 67  1  0  0  0
 38 68  1  0  0  0
 39 69  1  0  0  0
 39 70  1  0  0  0
 39 71  1  0  0  0
 40 41  1  0  0  0
 40 45  1  0  0  0
 41 42  1  0  0  0
 42 43  1  0  0  0
 42 46  2  0  0  0
 43 44  2  0  0  0
 43 72  1  0  0  0
 44 45  1  0  0  0
 45 73  1  0  0  0
M  CHG  1  32  -1
M  END
> <chembl_id>
CHEMBL3580759

> <chembl_pref_name>
None

> <i_m_ct_stereo_status>
1

> <s_m_source_file>
sdf/inactives_sanitized.sdf

> <i_m_source_file_index>
159

> <i_lp_mmshare_version>
49012

> <i_f3d_flags>
0

> <s_epik_input>
Tz1jKFtuSF0xKVtjSF1jKFtPSF0pYyhjMTIpW2NIXWMoW2NIXVtjSF0yKS1jKG4zKWMoQ2wpW25IXWMzW0NASF0oW0NIMl1DKD1PKU4oW0NIMl1bQ0gyXTQpW0NIMl1bQ0gyXU40W0NIM10pW05IXUMoPU8pXFtDSF09W0NIXVxjKFtjSF01KWMoW2NIXVtjSF1jNUNsKS1uNltjSF1ubm42

> <s_epik_cmdline>
J2VwaWtfcHl0aG9uJywgJy1waHQnLCAnMC41JywgJy1waCcsICc3LjUnLCAnLW50JywgJy1tYScsICcyMDAnLCAnLWltYWUnLCAnPGluZmlsZS5tYWU+JywgJy1vbWFlJywgJzxvdXRmaWxlLm1hZT4n

> <r_lp_tautomer_probability>
0.499999999999999

> <r_epik_Ionization_Penalty>
  0.5057

> <r_epik_Ionization_Penalty_Charging>
  0.0061

> <r_epik_Ionization_Penalty_Neutral>
  0.4996

> <r_epik_State_Penalty>
  0.5050

> <r_epik_Charging_Adjusted_Penalty>
0.511164022106075

> <i_epik_Tot_Q>
-1

> <i_epik_Tot_abs_Q>
1

> <s_lp_Force_Field>
OPLS3e

> <r_lp_Energy>
54.629697

> <b_lp_Chiralities_Consistent>
1

> <s_lp_Variant>
sdf/inactives_sanitized.sdf:159-2

$$$$
sdf/inactives_sanitized.sdf:160
                    3D
 Schrodinger Suite 2020-1.
 67 72  0  0  1  0            999 V2000
    5.1420   -1.2659    2.6979 N   0  3  1  0  0  0
   -4.0060    1.1570    0.0528 N   0  0  0  0  0  0
   -2.7909    1.7349    0.0760 N   0  0  0  0  0  0
   -1.7781    0.8311   -0.2117 C   0  0  0  0  0  0
   -2.4564   -0.3612   -0.4460 C   0  0  0  0  0  0
   -3.8179   -0.1077   -0.2518 C   0  0  0  0  0  0
   -4.9977   -1.0539   -0.3730 C   0  0  0  0  0  0
   -4.5958   -2.3183   -0.5043 F   0  0  0  0  0  0
   -5.7817   -0.9943    0.7041 F   0  0  0  0  0  0
   -5.7428   -0.7554   -1.4373 F   0  0  0  0  0  0
   -2.7095    3.1035    0.4202 C   0  0  0  0  0  0
   -0.3677    1.1208   -0.3527 C   0  0  0  0  0  0
    0.0269    2.2546   -0.6271 O   0  0  0  0  0  0
    0.4205    0.0398   -0.1600 N   0  0  0  0  0  0
    1.8268   -0.0520   -0.1832 C   0  0  0  0  0  0
    2.6897    1.0515   -0.0782 C   0  0  0  0  0  0
    4.0714    0.8704   -0.1055 C   0  0  0  0  0  0
    4.6276   -0.4071   -0.2300 C   0  0  0  0  0  0
    3.7643   -1.5023   -0.3453 C   0  0  0  0  0  0
    2.3800   -1.3323   -0.3155 C   0  0  0  0  0  0
    1.5832   -2.4233   -0.4188 F   0  0  0  0  0  0
   -3.4638    4.0455   -0.2963 C   0  0  0  0  0  0
   -3.4091    5.4060    0.0096 C   0  0  0  0  0  0
   -1.8796    3.4993    1.4809 C   0  0  0  0  0  0
   -1.8092    4.8640    1.8046 C   0  0  0  0  0  0
   -2.5713    5.7813    1.0646 C   0  0  0  0  0  0
   -2.3600    7.0437    1.5361 O   0  0  0  0  0  0
   -1.4492    6.9637    2.5995 N   0  0  0  0  0  0
   -1.1358    5.6958    2.7481 C   0  0  0  0  0  0
   -0.2659    5.2493    3.7000 N   0  0  0  0  0  0
    6.1066   -0.5840   -0.2345 C   0  0  0  0  0  0
    6.8585    0.1031   -1.1979 C   0  0  0  0  0  0
    8.2447   -0.0204   -1.2540 C   0  0  0  0  0  0
    8.9055   -0.8328   -0.3386 C   0  0  0  0  0  0
    8.1794   -1.5146    0.6346 C   0  0  0  0  0  0
    6.7858   -1.3960    0.7034 C   0  0  0  0  0  0
    6.0615   -2.1450    1.8238 C   0  0  0  0  0  0
    4.3221   -2.0493    3.7408 C   0  0  0  0  0  0
    4.0391   -1.0511    4.8730 C   0  0  0  0  0  0
    4.8373    0.2174    4.5589 C   0  0  2  0  0  0
    5.8757   -0.1949    3.5189 C   0  0  0  0  0  0
    5.3294    0.9089    5.6867 O   0  0  0  0  0  0
   -2.0206   -1.3080   -0.7314 H   0  0  0  0  0  0
   -0.0540   -0.8383   -0.0077 H   0  0  0  0  0  0
    2.3198    2.0571    0.0449 H   0  0  0  0  0  0
    4.7143    1.7341   -0.0126 H   0  0  0  0  0  0
    4.1675   -2.4977   -0.4621 H   0  0  0  0  0  0
   -4.0985    3.7223   -1.1094 H   0  0  0  0  0  0
   -3.9855    6.1324   -0.5443 H   0  0  0  0  0  0
   -1.3045    2.7727    2.0369 H   0  0  0  0  0  0
   -0.0412    4.2698    3.7950 H   0  0  0  0  0  0
    0.1801    5.8848    4.3456 H   0  0  0  0  0  0
    6.3632    0.7358   -1.9208 H   0  0  0  0  0  0
    8.8051    0.5126   -2.0082 H   0  0  0  0  0  0
    9.9805   -0.9309   -0.3804 H   0  0  0  0  0  0
    8.7108   -2.1339    1.3429 H   0  0  0  0  0  0
    5.4181   -2.9300    1.4258 H   0  0  0  0  0  0
    6.7561   -2.6096    2.5268 H   0  0  0  0  0  0
    3.4405   -2.4436    3.2339 H   0  0  0  0  0  0
    4.9531   -2.8712    4.0841 H   0  0  0  0  0  0
    2.9742   -0.8409    4.9809 H   0  0  0  0  0  0
    4.3727   -1.4913    5.8142 H   0  0  0  0  0  0
    4.1472    0.8970    4.0545 H   0  0  0  0  0  0
    6.2111    0.5985    2.8496 H   0  0  0  0  0  0
    6.7564   -0.6712    3.9548 H   0  0  0  0  0  0
    5.7695    1.7096    5.3910 H   0  0  0  0  0  0
    4.5029   -0.7902    2.0758 H   0  0  0  0  0  0
  1 37  1  0  0  0
  1 38  1  0  0  0
  1 41  1  0  0  0
  1 67  1  0  0  0
  2  6  2  0  0  0
  2  3  1  0  0  0
  3 11  1  0  0  0
  3  4  1  0  0  0
  4 12  1  0  0  0
  4  5  2  0  0  0
  5  6  1  0  0  0
  5 43  1  0  0  0
  6  7  1  0  0  0
  7  8  1  0  0  0
  7  9  1  0  0  0
  7 10  1  0  0  0
 11 22  2  0  0  0
 11 24  1  0  0  0
 12 13  2  0  0  0
 12 14  1  0  0  0
 14 15  1  0  0  0
 14 44  1  0  0  0
 15 16  2  0  0  0
 15 20  1  0  0  0
 16 17  1  0  0  0
 16 45  1  0  0  0
 17 18  2  0  0  0
 17 46  1  0  0  0
 18 31  1  0  0  0
 18 19  1  0  0  0
 19 20  2  0  0  0
 19 47  1  0  0  0
 20 21  1  0  0  0
 22 23  1  0  0  0
 22 48  1  0  0  0
 23 26  2  0  0  0
 23 49  1  0  0  0
 24 25  2  0  0  0
 24 50  1  0  0  0
 25 26  1  0  0  0
 25 29  1  0  0  0
 26 27  1  0  0  0
 27 28  1  0  0  0
 28 29  2  0  0  0
 29 30  1  0  0  0
 30 51  1  0  0  0
 30 52  1  0  0  0
 31 32  2  0  0  0
 31 36  1  0  0  0
 32 33  1  0  0  0
 32 53  1  0  0  0
 33 34  2  0  0  0
 33 54  1  0  0  0
 34 35  1  0  0  0
 34 55  1  0  0  0
 35 36  2  0  0  0
 35 56  1  0  0  0
 36 37  1  0  0  0
 37 57  1  0  0  0
 37 58  1  0  0  0
 38 39  1  0  0  0
 38 59  1  0  0  0
 38 60  1  0  0  0
 39 40  1  0  0  0
 39 61  1  0  0  0
 39 62  1  0  0  0
 40 41  1  0  0  0
 40 42  1  0  0  0
 40 63  1  0  0  0
 41 64  1  0  0  0
 41 65  1  0  0  0
 42 66  1  0  0  0
M  CHG  1   1   1
M  END
> <chembl_id>
CHEMBL436766

> <chembl_pref_name>
None

> <i_m_ct_stereo_status>
1

> <s_m_source_file>
sdf/inactives_sanitized.sdf

> <i_m_source_file_index>
160

> <i_lp_mmshare_version>
49012

> <i_f3d_flags>
0

> <s_epik_input>
W0NIMl0xW0NASF0oW09IXSlbQ0gyXVtDSDJdTjFbQ0gyXWMyW2NIXVtjSF1bY0hdW2NIXWMyLWMoW2NIXWMzRilbY0hdW2NIXWMzW05IXUMoPU8pYzRbY0hdYyhDKEYpKEYpRilubjQtYyhbY0hdNSlbY0hdW2NIXWMoYzU2KW9uYzZbTkgyXQ==

> <s_epik_cmdline>
J2VwaWtfcHl0aG9uJywgJy1waHQnLCAnMC41JywgJy1waCcsICc3LjUnLCAnLW50JywgJy1tYScsICcyMDAnLCAnLWltYWUnLCAnPGluZmlsZS5tYWU+JywgJy1vbWFlJywgJzxvdXRmaWxlLm1hZT4n

> <r_lp_tautomer_probability>
1

> <r_epik_Ionization_Penalty>
  0.0321

> <r_epik_Ionization_Penalty_Charging>
  0.0321

> <r_epik_Ionization_Penalty_Neutral>
  0.0000

> <r_epik_State_Penalty>
  0.0265

> <r_epik_Charging_Adjusted_Penalty>
0.0585996915875001

> <i_epik_Tot_Q>
1

> <i_epik_Tot_abs_Q>
1

> <s_lp_Force_Field>
OPLS3e

> <r_lp_Energy>
61.840675

> <b_lp_Chiralities_Consistent>
1

> <s_lp_Variant>
sdf/inactives_sanitized.sdf:160-1

$$$$
sdf/inactives_sanitized.sdf:161
                    3D
 Schrodinger Suite 2020-1.
 72 73  0  0  1  0            999 V2000
    2.9437    3.9170    2.8698 C   0  0  0  0  0  0
    3.0843    4.2670    4.2096 C   0  0  0  0  0  0
    2.0635    4.9542    4.8869 C   0  0  0  0  0  0
    0.8983    5.2836    4.1749 C   0  0  0  0  0  0
    0.7557    4.9349    2.8347 C   0  0  0  0  0  0
    1.7761    4.2453    2.1802 C   0  0  0  0  0  0
    2.2099    5.3162    6.3004 C   0  0  0  0  0  0
    2.9081    4.5206    7.1019 N   0  0  0  0  0  0
    1.6406    6.4301    6.7450 N   0  3  0  0  0  0
    1.6191    3.8542    0.7135 C   0  0  0  0  0  0
    1.6713    2.4144    0.4646 N   0  0  0  0  0  0
    0.7464    1.5316    0.8853 C   0  0  0  0  0  0
    0.9911    0.0367    0.5952 C   0  0  1  0  0  0
   -0.2776    1.8532    1.4877 O   0  0  0  0  0  0
    2.0979   -0.2041   -0.3331 N   0  0  0  0  0  0
    2.0252   -0.1321   -1.6726 C   0  0  0  0  0  0
    3.3472   -0.4350   -2.4140 C   0  0  1  0  0  0
    0.9987    0.1370   -2.2996 O   0  0  0  0  0  0
    3.1308   -1.5017   -3.4288 N   0  0  1  0  0  0
    2.8872   -3.1946   -2.9710 S   0  0  0  0  0  0
    4.6311   -3.8468   -2.5973 C   0  0  0  0  0  0
    2.1043   -3.2308   -1.7305 O   0  0  0  0  0  0
    2.3962   -3.8894   -4.1655 O   0  0  0  0  0  0
    5.2252   -3.2596   -1.3263 C   0  0  0  0  0  0
    4.7617   -3.6863   -0.0806 C   0  0  0  0  0  0
    5.2693   -3.1227    1.0867 C   0  0  0  0  0  0
    6.2476   -2.1324    1.0149 C   0  0  0  0  0  0
    6.7433   -1.6968   -0.2255 C   0  0  0  0  0  0
    6.2276   -2.2868   -1.3926 C   0  0  0  0  0  0
    1.2633   -0.7313    1.9069 C   0  0  0  0  0  0
    1.4318   -2.2482    1.7193 C   0  0  0  0  0  0
    1.7175   -3.1486    3.2650 S   0  0  0  0  0  0
    3.9124    0.8758   -3.0425 C   0  0  2  0  0  0
    3.0660    1.4261   -4.0397 O   0  0  0  0  0  0
    5.3087    0.6936   -3.6586 C   0  0  0  0  0  0
    7.7855   -0.6193   -0.3016 C   0  0  0  0  0  0
    8.1604   -0.0875    0.7685 O   0  5  0  0  0  0
    8.2194   -0.2997   -1.4319 O   0  0  0  0  0  0
    1.7999   -4.8383    2.6184 C   0  0  0  0  0  0
    3.7414    3.3863    2.3698 H   0  0  0  0  0  0
    4.0029    3.9990    4.7130 H   0  0  0  0  0  0
    0.0829    5.8065    4.6549 H   0  0  0  0  0  0
   -0.1541    5.1924    2.3116 H   0  0  0  0  0  0
    3.0159    4.7567    8.0774 H   0  0  0  0  0  0
    3.3236    3.6781    6.7316 H   0  0  0  0  0  0
    1.7329    6.6907    7.7159 H   0  0  0  0  0  0
    0.6982    4.2656    0.2940 H   0  0  0  0  0  0
    2.4307    4.3191    0.1523 H   0  0  0  0  0  0
    2.4846    2.0686   -0.0239 H   0  0  0  0  0  0
    0.0750   -0.3612    0.1543 H   0  0  0  0  0  0
    2.9776   -0.4527    0.0958 H   0  0  0  0  0  0
    4.0750   -0.8061   -1.6959 H   0  0  0  0  0  0
    2.6459   -1.1974   -4.2776 H   0  0  0  0  0  0
    4.5542   -4.9300   -2.4988 H   0  0  0  0  0  0
    5.2541   -3.6419   -3.4685 H   0  0  0  0  0  0
    3.9939   -4.4433   -0.0172 H   0  0  0  0  0  0
    4.8987   -3.4476    2.0478 H   0  0  0  0  0  0
    6.6149   -1.7080    1.9385 H   0  0  0  0  0  0
    6.5800   -1.9723   -2.3650 H   0  0  0  0  0  0
    2.1585   -0.3322    2.3869 H   0  0  0  0  0  0
    0.4457   -0.5587    2.6087 H   0  0  0  0  0  0
    0.5429   -2.6599    1.2404 H   0  0  0  0  0  0
    2.2699   -2.4605    1.0559 H   0  0  0  0  0  0
    4.0041    1.6320   -2.2604 H   0  0  0  0  0  0
    2.2074    1.6030   -3.6468 H   0  0  0  0  0  0
    6.0248    0.3674   -2.9058 H   0  0  0  0  0  0
    5.6807    1.6295   -4.0766 H   0  0  0  0  0  0
    5.3039   -0.0486   -4.4572 H   0  0  0  0  0  0
    1.9716   -5.5439    3.4312 H   0  0  0  0  0  0
    2.6139   -4.9332    1.9007 H   0  0  0  0  0  0
    0.8659   -5.1023    2.1224 H   0  0  0  0  0  0
    1.1195    7.0145    6.1074 H   0  0  0  0  0  0
  1  6  2  0  0  0
  1  2  1  0  0  0
  1 40  1  0  0  0
  2  3  2  0  0  0
  2 41  1  0  0  0
  3  7  1  0  0  0
  3  4  1  0  0  0
  4  5  2  0  0  0
  4 42  1  0  0  0
  5  6  1  0  0  0
  5 43  1  0  0  0
  6 10  1  0  0  0
  7  8  1  0  0  0
  7  9  2  0  0  0
  8 44  1  0  0  0
  8 45  1  0  0  0
  9 46  1  0  0  0
  9 72  1  0  0  0
 10 11  1  0  0  0
 10 47  1  0  0  0
 10 48  1  0  0  0
 11 12  1  0  0  0
 11 49  1  0  0  0
 12 13  1  0  0  0
 12 14  2  0  0  0
 13 30  1  0  0  0
 13 15  1  0  0  0
 13 50  1  0  0  0
 15 16  1  0  0  0
 15 51  1  0  0  0
 16 17  1  0  0  0
 16 18  2  0  0  0
 17 33  1  0  0  0
 17 19  1  0  0  0
 17 52  1  0  0  0
 19 20  1  0  0  0
 19 53  1  0  0  0
 20 21  1  0  0  0
 20 22  2  0  0  0
 20 23  2  0  0  0
 21 24  1  0  0  0
 21 54  1  0  0  0
 21 55  1  0  0  0
 24 25  2  0  0  0
 24 29  1  0  0  0
 25 26  1  0  0  0
 25 56  1  0  0  0
 26 27  2  0  0  0
 26 57  1  0  0  0
 27 28  1  0  0  0
 27 58  1  0  0  0
 28 29  2  0  0  0
 28 36  1  0  0  0
 29 59  1  0  0  0
 30 31  1  0  0  0
 30 60  1  0  0  0
 30 61  1  0  0  0
 31 32  1  0  0  0
 31 62  1  0  0  0
 31 63  1  0  0  0
 32 39  1  0  0  0
 33 34  1  0  0  0
 33 35  1  0  0  0
 33 64  1  0  0  0
 34 65  1  0  0  0
 35 66  1  0  0  0
 35 67  1  0  0  0
 35 68  1  0  0  0
 36 37  1  0  0  0
 36 38  2  0  0  0
 39 69  1  0  0  0
 39 70  1  0  0  0
 39 71  1  0  0  0
M  CHG  2   9   1  37  -1
M  END
> <chembl_id>
CHEMBL506769

> <chembl_pref_name>
None

> <i_m_ct_stereo_status>
1

> <s_m_source_file>
sdf/inactives_sanitized.sdf

> <i_m_source_file_index>
161

> <i_lp_mmshare_version>
49012

> <i_f3d_flags>
0

> <s_epik_input>
W0hdXE49QyhbTkgyXSlcYzFbY0hdW2NIXWMoW2NIXVtjSF0xKVtDSDJdW05IXUMoPU8pW0NASF0oW0NIMl1bQ0gyXVNbQ0gzXSlbTkhdQyg9TylbQ0BIXShbQ0BIXShbT0hdKVtDSDNdKVtOSF1TKD1PKSg9TylbQ0gyXWMyW2NIXVtjSF1bY0hdYyhbY0hdMilDKD1PKVtPSF0=

> <s_epik_cmdline>
J2VwaWtfcHl0aG9uJywgJy1waHQnLCAnMC41JywgJy1waCcsICc3LjUnLCAnLW50JywgJy1tYScsICcyMDAnLCAnLWltYWUnLCAnPGluZmlsZS5tYWU+JywgJy1vbWFlJywgJzxvdXRmaWxlLm1hZT4n

> <r_lp_tautomer_probability>
1

> <r_epik_Ionization_Penalty>
  0.0010

> <r_epik_Ionization_Penalty_Charging>
  0.0007

> <r_epik_Ionization_Penalty_Neutral>
  0.0003

> <r_epik_State_Penalty>
 -0.0000

> <r_epik_Charging_Adjusted_Penalty>
0.000709317448761142

> <i_epik_Tot_Q>
0

> <i_epik_Tot_abs_Q>
2

> <s_epik_Chemistry_Notes>
This compound has an imine and may undergo hydrolysis.

> <s_lp_Force_Field>
OPLS3e

> <r_lp_Energy>
11.258955

> <b_lp_Chiralities_Consistent>
1

> <s_lp_Variant>
sdf/inactives_sanitized.sdf:161-1

$$$$
sdf/inactives_sanitized.sdf:162
                    3D
 Schrodinger Suite 2020-1.
 70 74  0  0  1  0            999 V2000
   -3.5043    0.3895   -0.5560 C   0  0  0  0  0  0
   -2.2740   -0.2892   -0.3438 O   0  0  0  0  0  0
   -1.1001    0.3709   -0.4098 C   0  0  0  0  0  0
   -0.9931    1.5768   -0.6432 O   0  0  0  0  0  0
   -0.0747   -0.5389   -0.1708 N   0  0  0  0  0  0
    1.3163   -0.3371   -0.1505 C   0  0  0  0  0  0
    1.9494    0.8815   -0.4339 C   0  0  0  0  0  0
    3.3393    0.9743   -0.3975 C   0  0  0  0  0  0
    4.1327   -0.1346   -0.0832 C   0  0  0  0  0  0
    3.4930   -1.3534    0.2303 C   0  0  0  0  0  0
    4.1872   -2.5337    0.5348 N   0  0  0  0  0  0
    4.8439   -2.9000    1.6627 C   0  0  0  0  0  0
    5.3622   -4.0158    1.6799 O   0  0  0  0  0  0
    5.0253   -2.0213    2.9378 C   0  0  2  0  0  0
    3.9379   -0.9460    3.1945 C   0  0  0  0  0  0
    6.5324   -1.6073    3.0498 C   0  0  0  0  0  0
    6.9457   -0.3818    3.8909 C   0  0  0  0  0  0
    6.2709    0.0289    4.8327 O   0  0  0  0  0  0
    8.2698    0.3132    3.5013 C   0  0  0  0  0  0
    8.1833    1.4247    2.3979 C   0  0  2  0  0  0
    7.6724    2.7647    2.8312 N   0  0  0  0  0  0
    7.5466    3.0825    4.2876 C   0  0  0  0  0  0
    6.5366    4.2250    4.5669 C   0  0  0  0  0  0
    6.8533    5.3898    3.6509 C   0  0  0  0  0  0
    7.3252    5.1181    2.4194 C   0  0  0  0  0  0
    7.6458    3.7986    1.9154 C   0  0  0  0  0  0
    7.8386    3.6662    0.7059 O   0  0  0  0  0  0
    6.3734    6.7465    3.9953 C   0  0  0  0  0  0
    5.3881    7.3884    3.2260 C   0  0  0  0  0  0
    4.8427    6.7748    2.1490 F   0  0  0  0  0  0
    4.9456    8.6663    3.5673 C   0  0  0  0  0  0
    5.4752    9.3174    4.6789 C   0  0  0  0  0  0
    6.4506    8.6920    5.4540 C   0  0  0  0  0  0
    7.0980    9.5129    6.8300 Cl  0  0  0  0  0  0
    6.8988    7.4114    5.1149 C   0  0  0  0  0  0
    7.8546    6.8187    5.8715 F   0  0  0  0  0  0
    7.5583    0.8386    1.1214 C   0  0  0  0  0  0
    6.1725    0.8485    0.9435 C   0  0  0  0  0  0
    5.6061    0.0309   -0.0373 C   0  0  0  0  0  0
    6.4599   -0.6683   -0.8995 C   0  0  0  0  0  0
    7.8406   -0.5527   -0.7205 C   0  0  0  0  0  0
    8.3967    0.1669    0.2882 N   0  0  0  0  0  0
    2.0989   -1.4474    0.1723 C   0  0  0  0  0  0
   -4.3338   -0.3120   -0.4675 H   0  0  0  0  0  0
   -3.5401    0.8335   -1.5521 H   0  0  0  0  0  0
   -3.6477    1.1806    0.1818 H   0  0  0  0  0  0
   -0.3684   -1.4867    0.0142 H   0  0  0  0  0  0
    1.3956    1.7700   -0.6907 H   0  0  0  0  0  0
    3.8051    1.9234   -0.6219 H   0  0  0  0  0  0
    4.1109   -3.2493   -0.1732 H   0  0  0  0  0  0
    4.8612   -2.7324    3.7502 H   0  0  0  0  0  0
    2.9400   -1.3226    2.9678 H   0  0  0  0  0  0
    4.0929   -0.0360    2.6220 H   0  0  0  0  0  0
    3.9052   -0.6626    4.2461 H   0  0  0  0  0  0
    7.0812   -2.4530    3.4657 H   0  0  0  0  0  0
    6.9508   -1.4747    2.0543 H   0  0  0  0  0  0
    8.7472    0.7052    4.3988 H   0  0  0  0  0  0
    8.9429   -0.4682    3.1471 H   0  0  0  0  0  0
    9.2272    1.6300    2.1512 H   0  0  0  0  0  0
    7.4373    2.2216    4.9410 H   0  0  0  0  0  0
    8.5129    3.5095    4.5619 H   0  0  0  0  0  0
    5.5298    3.8623    4.3548 H   0  0  0  0  0  0
    6.5566    4.5178    5.6169 H   0  0  0  0  0  0
    7.4582    5.9388    1.7277 H   0  0  0  0  0  0
    4.1874    9.1525    2.9708 H   0  0  0  0  0  0
    5.1265   10.3066    4.9373 H   0  0  0  0  0  0
    5.5434    1.3789    1.6433 H   0  0  0  0  0  0
    6.0620   -1.3021   -1.6786 H   0  0  0  0  0  0
    8.5249   -1.0805   -1.3681 H   0  0  0  0  0  0
    1.6201   -2.3931    0.3892 H   0  0  0  0  0  0
  1  2  1  0  0  0
  1 44  1  0  0  0
  1 45  1  0  0  0
  1 46  1  0  0  0
  2  3  1  0  0  0
  3  4  2  0  0  0
  3  5  1  0  0  0
  5  6  1  0  0  0
  5 47  1  0  0  0
  6  7  2  0  0  0
  6 43  1  0  0  0
  7  8  1  0  0  0
  7 48  1  0  0  0
  8  9  2  0  0  0
  8 49  1  0  0  0
  9 10  1  0  0  0
  9 39  1  0  0  0
 10 11  1  0  0  0
 10 43  2  0  0  0
 11 12  1  0  0  0
 11 50  1  0  0  0
 12 13  2  0  0  0
 12 14  1  0  0  0
 14 15  1  0  0  0
 14 16  1  0  0  0
 14 51  1  0  0  0
 15 52  1  0  0  0
 15 53  1  0  0  0
 15 54  1  0  0  0
 16 17  1  0  0  0
 16 55  1  0  0  0
 16 56  1  0  0  0
 17 18  2  0  0  0
 17 19  1  0  0  0
 19 20  1  0  0  0
 19 57  1  0  0  0
 19 58  1  0  0  0
 20 21  1  0  0  0
 20 37  1  0  0  0
 20 59  1  0  0  0
 21 22  1  0  0  0
 21 26  1  0  0  0
 22 23  1  0  0  0
 22 60  1  0  0  0
 22 61  1  0  0  0
 23 24  1  0  0  0
 23 62  1  0  0  0
 23 63  1  0  0  0
 24 25  2  0  0  0
 24 28  1  0  0  0
 25 26  1  0  0  0
 25 64  1  0  0  0
 26 27  2  0  0  0
 28 29  2  0  0  0
 28 35  1  0  0  0
 29 30  1  0  0  0
 29 31  1  0  0  0
 31 32  2  0  0  0
 31 65  1  0  0  0
 32 33  1  0  0  0
 32 66  1  0  0  0
 33 34  1  0  0  0
 33 35  2  0  0  0
 35 36  1  0  0  0
 37 38  1  0  0  0
 37 42  2  0  0  0
 38 39  2  0  0  0
 38 67  1  0  0  0
 39 40  1  0  0  0
 40 41  2  0  0  0
 40 68  1  0  0  0
 41 42  1  0  0  0
 41 69  1  0  0  0
 43 70  1  0  0  0
M  END
> <chembl_id>
CHEMBL4106755

> <chembl_pref_name>
None

> <i_m_ct_stereo_status>
1

> <s_m_source_file>
sdf/inactives_sanitized.sdf

> <i_m_source_file_index>
162

> <i_lp_mmshare_version>
49012

> <i_f3d_flags>
0

> <s_epik_input>
W0NIM11PQyg9TylbTkhdYyhbY0hdW2NIXTEpW2NIXWMoYzEyKVtOSF1DKD1PKVtDQEhdKFtDSDNdKVtDSDJdQyg9TylbQ0gyXVtDQEBIXShjM1tjSF1jMltjSF1bY0hdbjMpTjRbQ0gyXVtDSDJdQyg9W0NIXUM0PU8pYzVjKEYpW2NIXVtjSF1jKENsKWM1Rg==

> <s_epik_cmdline>
J2VwaWtfcHl0aG9uJywgJy1waHQnLCAnMC41JywgJy1waCcsICc3LjUnLCAnLW50JywgJy1tYScsICcyMDAnLCAnLWltYWUnLCAnPGluZmlsZS5tYWU+JywgJy1vbWFlJywgJzxvdXRmaWxlLm1hZT4n

> <r_lp_tautomer_probability>
1

> <r_epik_Ionization_Penalty>
  0.0001

> <r_epik_Ionization_Penalty_Charging>
  0.0000

> <r_epik_Ionization_Penalty_Neutral>
  0.0001

> <r_epik_State_Penalty>
 -0.0000

> <r_epik_Charging_Adjusted_Penalty>
0

> <i_epik_Tot_Q>
0

> <i_epik_Tot_abs_Q>
0

> <s_epik_Chemistry_Notes>
This compound has an ester and may undergo hydrolysis at high or low pH.

> <s_lp_Force_Field>
OPLS3e

> <r_lp_Energy>
105.506207

> <b_lp_Chiralities_Consistent>
1

> <s_lp_Variant>
sdf/inactives_sanitized.sdf:162-1

$$$$
sdf/inactives_sanitized.sdf:163
                    3D
 Schrodinger Suite 2020-1.
 69 73  0  0  1  0            999 V2000
   -3.3095    1.3043    0.1592 C   0  0  0  0  0  0
   -2.1234    0.5257    0.2382 O   0  0  0  0  0  0
   -0.9119    1.0940    0.0724 C   0  0  0  0  0  0
   -0.7323    2.2933   -0.1500 O   0  0  0  0  0  0
    0.0574    0.1042    0.2078 N   0  0  0  0  0  0
    1.4549    0.1998    0.0950 C   0  0  0  0  0  0
    2.1862   -0.9349    0.4468 C   0  0  0  0  0  0
    3.5766   -0.9331    0.3651 C   0  0  0  0  0  0
    4.2731    0.1967   -0.0767 C   0  0  0  0  0  0
    5.7579    0.1334   -0.1485 C   0  0  0  0  0  0
    6.4261    0.1643   -1.3789 C   0  0  0  0  0  0
    7.8215    0.1614   -1.3923 C   0  0  0  0  0  0
    8.5689    0.1543   -0.2604 N   0  0  0  0  0  0
    7.9167    0.1310    0.9344 C   0  0  0  0  0  0
    6.5213    0.0809    1.0227 C   0  0  0  0  0  0
    8.7638    0.2289    2.2111 C   0  0  2  0  0  0
    8.9759    1.7117    2.6261 C   0  0  0  0  0  0
    7.6824    2.4577    2.9114 C   0  0  0  0  0  0
    7.0881    3.3032    2.0507 C   0  0  0  0  0  0
    5.7554    3.9933    2.2855 C   0  0  0  0  0  0
    4.5718    3.3717    1.5182 C   0  0  0  0  0  0
    4.7360    3.4464    0.0625 N   0  0  0  0  0  0
    4.2152    2.6260   -0.8725 C   0  0  0  0  0  0
    4.2921    2.8856   -2.0715 O   0  0  0  0  0  0
    3.5389    1.3537   -0.4242 C   0  0  0  0  0  0
    2.1407    1.3411   -0.3468 C   0  0  0  0  0  0
   10.0264   -0.5507    2.1563 N   0  0  0  0  0  0
   11.2601    0.0847    1.6027 C   0  0  0  0  0  0
   12.2645   -0.9438    1.0159 C   0  0  0  0  0  0
   12.4190   -2.0948    1.9944 C   0  0  0  0  0  0
   11.3195   -2.4953    2.6640 C   0  0  0  0  0  0
   10.0248   -1.8514    2.5970 C   0  0  0  0  0  0
    9.0094   -2.4701    2.9208 O   0  0  0  0  0  0
   13.6443   -2.9332    1.9989 C   0  0  0  0  0  0
   14.2215   -3.3827    0.7985 C   0  0  0  0  0  0
   13.6607   -3.0862   -0.3974 F   0  0  0  0  0  0
   15.3790   -4.1609    0.8152 C   0  0  0  0  0  0
   15.9776   -4.5027    2.0246 C   0  0  0  0  0  0
   15.4202   -4.0657    3.2243 C   0  0  0  0  0  0
   16.1772   -4.4934    4.7177 Cl  0  0  0  0  0  0
   14.2607   -3.2841    3.2137 C   0  0  0  0  0  0
   13.7441   -2.8532    4.3905 F   0  0  0  0  0  0
   -4.1805    0.6693    0.3198 H   0  0  0  0  0  0
   -3.4067    1.7721   -0.8217 H   0  0  0  0  0  0
   -3.3154    2.0874    0.9189 H   0  0  0  0  0  0
   -0.2892   -0.8193    0.4223 H   0  0  0  0  0  0
    1.6823   -1.8284    0.7876 H   0  0  0  0  0  0
    4.1180   -1.8262    0.6425 H   0  0  0  0  0  0
    5.8730    0.2013   -2.3064 H   0  0  0  0  0  0
    8.3626    0.1861   -2.3264 H   0  0  0  0  0  0
    6.0361    0.0724    1.9883 H   0  0  0  0  0  0
    8.1521   -0.2014    3.0071 H   0  0  0  0  0  0
    9.5975    1.7716    3.5203 H   0  0  0  0  0  0
    9.5175    2.2459    1.8440 H   0  0  0  0  0  0
    7.2117    2.2440    3.8602 H   0  0  0  0  0  0
    7.5528    3.4963    1.0942 H   0  0  0  0  0  0
    5.5272    3.9191    3.3501 H   0  0  0  0  0  0
    5.8266    5.0652    2.0986 H   0  0  0  0  0  0
    4.5617    2.3134    1.7829 H   0  0  0  0  0  0
    3.6165    3.7872    1.8414 H   0  0  0  0  0  0
    5.2025    4.2770   -0.2719 H   0  0  0  0  0  0
    1.6053    2.2332   -0.6327 H   0  0  0  0  0  0
   11.0331    0.9099    0.9280 H   0  0  0  0  0  0
   11.7557    0.5467    2.4577 H   0  0  0  0  0  0
   11.8478   -1.3174    0.0793 H   0  0  0  0  0  0
   13.2206   -0.4696    0.7921 H   0  0  0  0  0  0
   11.3788   -3.3809    3.2811 H   0  0  0  0  0  0
   15.8126   -4.5028   -0.1132 H   0  0  0  0  0  0
   16.8740   -5.1057    2.0287 H   0  0  0  0  0  0
  1  2  1  0  0  0
  1 43  1  0  0  0
  1 44  1  0  0  0
  1 45  1  0  0  0
  2  3  1  0  0  0
  3  4  2  0  0  0
  3  5  1  0  0  0
  5  6  1  0  0  0
  5 46  1  0  0  0
  6  7  2  0  0  0
  6 26  1  0  0  0
  7  8  1  0  0  0
  7 47  1  0  0  0
  8  9  2  0  0  0
  8 48  1  0  0  0
  9 10  1  0  0  0
  9 25  1  0  0  0
 10 11  2  0  0  0
 10 15  1  0  0  0
 11 12  1  0  0  0
 11 49  1  0  0  0
 12 13  2  0  0  0
 12 50  1  0  0  0
 13 14  1  0  0  0
 14 15  2  0  0  0
 14 16  1  0  0  0
 15 51  1  0  0  0
 16 17  1  0  0  0
 16 27  1  0  0  0
 16 52  1  0  0  0
 17 18  1  0  0  0
 17 53  1  0  0  0
 17 54  1  0  0  0
 18 19  2  0  0  0
 18 55  1  0  0  0
 19 20  1  0  0  0
 19 56  1  0  0  0
 20 21  1  0  0  0
 20 57  1  0  0  0
 20 58  1  0  0  0
 21 22  1  0  0  0
 21 59  1  0  0  0
 21 60  1  0  0  0
 22 23  1  0  0  0
 22 61  1  0  0  0
 23 24  2  0  0  0
 23 25  1  0  0  0
 25 26  2  0  0  0
 26 62  1  0  0  0
 27 28  1  0  0  0
 27 32  1  0  0  0
 28 29  1  0  0  0
 28 63  1  0  0  0
 28 64  1  0  0  0
 29 30  1  0  0  0
 29 65  1  0  0  0
 29 66  1  0  0  0
 30 31  2  0  0  0
 30 34  1  0  0  0
 31 32  1  0  0  0
 31 67  1  0  0  0
 32 33  2  0  0  0
 34 35  2  0  0  0
 34 41  1  0  0  0
 35 36  1  0  0  0
 35 37  1  0  0  0
 37 38  2  0  0  0
 37 68  1  0  0  0
 38 39  1  0  0  0
 38 69  1  0  0  0
 39 40  1  0  0  0
 39 41  2  0  0  0
 41 42  1  0  0  0
M  END
> <chembl_id>
CHEMBL4107613

> <chembl_pref_name>
None

> <i_m_ct_stereo_status>
1

> <s_m_source_file>
sdf/inactives_sanitized.sdf

> <i_m_source_file_index>
163

> <i_lp_mmshare_version>
49012

> <i_f3d_flags>
0

> <s_epik_input>
W0NIM11PQyg9TylbTkhdYyhbY0hdW2NIXTEpW2NIXWMyQyg9TylbTkhdW0NIMl1bQ0gyXVxbQ0hdPVtDSF1cW0NIMl1bQ0BASF0oYyhbY0hdMyluW2NIXVtjSF1jM2MxMilONFtDSDJdW0NIMl1DKD1bQ0hdQzQ9TyljNWMoRilbY0hdW2NIXWMoQ2wpYzVG

> <s_epik_cmdline>
J2VwaWtfcHl0aG9uJywgJy1waHQnLCAnMC41JywgJy1waCcsICc3LjUnLCAnLW50JywgJy1tYScsICcyMDAnLCAnLWltYWUnLCAnPGluZmlsZS5tYWU+JywgJy1vbWFlJywgJzxvdXRmaWxlLm1hZT4n

> <r_lp_tautomer_probability>
1

> <r_epik_Ionization_Penalty>
  0.0000

> <r_epik_Ionization_Penalty_Charging>
  0.0000

> <r_epik_Ionization_Penalty_Neutral>
  0.0000

> <r_epik_State_Penalty>
 -0.0000

> <r_epik_Charging_Adjusted_Penalty>
0

> <i_epik_Tot_Q>
0

> <i_epik_Tot_abs_Q>
0

> <s_epik_Chemistry_Notes>
This compound has an ester and may undergo hydrolysis at high or low pH.

> <s_lp_Force_Field>
OPLS3e

> <r_lp_Energy>
84.829487

> <b_lp_Chiralities_Consistent>
1

> <s_lp_Variant>
sdf/inactives_sanitized.sdf:163-1

$$$$
sdf/inactives_sanitized.sdf:164
                    3D
 Schrodinger Suite 2020-1.
 54 56  0  0  1  0            999 V2000
   -3.1709   -0.0300   -0.3714 C   0  0  0  0  0  0
   -4.4633   -0.2816   -0.8178 C   0  0  0  0  0  0
   -4.6939   -0.9319   -2.0258 C   0  0  0  0  0  0
   -2.0545   -0.4241   -1.1236 C   0  0  0  0  0  0
   -2.2517   -1.0863   -2.3528 C   0  0  0  0  0  0
   -3.5869   -1.3312   -2.7876 C   0  0  0  0  0  0
   -3.6198   -2.1650   -4.3321 S   0  0  0  0  0  0
   -1.8623   -2.1815   -4.4047 C   0  0  0  0  0  0
   -1.2981   -1.5822   -3.2884 C   0  0  0  0  0  0
   -1.1957   -2.7620   -5.4677 C   0  0  0  0  0  0
   -1.7181   -2.6799   -6.6848 N   0  0  0  0  0  0
   -0.0432   -3.3774   -5.2354 N   0  3  0  0  0  0
   -0.7306   -0.2316   -0.7707 O   0  0  0  0  0  0
   -0.3949    0.4477    0.4467 C   0  0  2  0  0  0
    1.0918    0.8440    0.3718 C   0  0  0  0  0  0
   -0.6295   -0.4512    1.6687 C   0  0  0  0  0  0
    1.4579    1.9303    1.0778 N   0  0  0  0  0  0
    2.8236    2.4429    1.1900 C   0  0  0  0  0  0
    1.8859    0.1743   -0.2932 O   0  0  0  0  0  0
   -0.9621    0.1319    2.8965 C   0  0  0  0  0  0
   -1.1537   -0.6658    4.0212 C   0  0  0  0  0  0
   -1.0052   -2.0470    3.9209 C   0  0  0  0  0  0
   -0.6629   -2.6375    2.7068 C   0  0  0  0  0  0
   -0.4711   -1.8402    1.5817 C   0  0  0  0  0  0
    3.6823    1.6747    2.2224 C   0  0  0  0  0  0
    4.2994    0.3908    1.6168 N   0  3  0  0  0  0
    5.4614    0.6702    0.6413 C   0  0  0  0  0  0
    4.7373   -0.5994    2.7139 C   0  0  0  0  0  0
   -3.0524    0.4736    0.5758 H   0  0  0  0  0  0
   -5.3027    0.0321   -0.2144 H   0  0  0  0  0  0
   -5.7026   -1.1228   -2.3627 H   0  0  0  0  0  0
   -0.2319   -1.4931   -3.1401 H   0  0  0  0  0  0
   -1.2394   -3.1005   -7.4677 H   0  0  0  0  0  0
   -2.5928   -2.1945   -6.8220 H   0  0  0  0  0  0
    0.4581   -3.8120   -5.9959 H   0  0  0  0  0  0
   -0.9858    1.3628    0.5332 H   0  0  0  0  0  0
    0.7458    2.4420    1.5787 H   0  0  0  0  0  0
    3.2897    2.4843    0.2053 H   0  0  0  0  0  0
    2.7459    3.4817    1.5118 H   0  0  0  0  0  0
   -1.0736    1.2034    2.9804 H   0  0  0  0  0  0
   -1.4154   -0.2157    4.9677 H   0  0  0  0  0  0
   -1.1542   -2.6656    4.7938 H   0  0  0  0  0  0
   -0.5447   -3.7090    2.6390 H   0  0  0  0  0  0
   -0.1978   -2.3040    0.6450 H   0  0  0  0  0  0
    4.5145    2.2613    2.6152 H   0  0  0  0  0  0
    3.0667    1.3348    3.0578 H   0  0  0  0  0  0
    6.2479    1.1823    1.1975 H   0  0  0  0  0  0
    5.0832    1.2818   -0.1762 H   0  0  0  0  0  0
    5.8025   -0.2943    0.2631 H   0  0  0  0  0  0
    5.5078   -0.1134    3.3146 H   0  0  0  0  0  0
    5.1168   -1.4922    2.2150 H   0  0  0  0  0  0
    3.8536   -0.8384    3.3072 H   0  0  0  0  0  0
    0.3223   -3.4150   -4.2951 H   0  0  0  0  0  0
    3.5663   -0.0665    1.0906 H   0  0  0  0  0  0
  1  2  2  0  0  0
  1  4  1  0  0  0
  1 29  1  0  0  0
  2  3  1  0  0  0
  2 30  1  0  0  0
  3  6  2  0  0  0
  3 31  1  0  0  0
  4  5  2  0  0  0
  4 13  1  0  0  0
  5  9  1  0  0  0
  5  6  1  0  0  0
  6  7  1  0  0  0
  7  8  1  0  0  0
  8  9  2  0  0  0
  8 10  1  0  0  0
  9 32  1  0  0  0
 10 11  1  0  0  0
 10 12  2  0  0  0
 11 33  1  0  0  0
 11 34  1  0  0  0
 12 35  1  0  0  0
 12 53  1  0  0  0
 13 14  1  0  0  0
 14 15  1  0  0  0
 14 16  1  0  0  0
 14 36  1  0  0  0
 15 17  1  0  0  0
 15 19  2  0  0  0
 16 20  2  0  0  0
 16 24  1  0  0  0
 17 18  1  0  0  0
 17 37  1  0  0  0
 18 25  1  0  0  0
 18 38  1  0  0  0
 18 39  1  0  0  0
 20 21  1  0  0  0
 20 40  1  0  0  0
 21 22  2  0  0  0
 21 41  1  0  0  0
 22 23  1  0  0  0
 22 42  1  0  0  0
 23 24  2  0  0  0
 23 43  1  0  0  0
 24 44  1  0  0  0
 25 26  1  0  0  0
 25 45  1  0  0  0
 25 46  1  0  0  0
 26 27  1  0  0  0
 26 28  1  0  0  0
 26 54  1  0  0  0
 27 47  1  0  0  0
 27 48  1  0  0  0
 27 49  1  0  0  0
 28 50  1  0  0  0
 28 51  1  0  0  0
 28 52  1  0  0  0
M  CHG  2  12   1  26   1
M  END
> <chembl_id>
CHEMBL597553

> <chembl_pref_name>
None

> <s_m_source_file>
sdf/inactives_sanitized.sdf

> <i_m_source_file_index>
164

> <i_lp_mmshare_version>
49012

> <i_m_ct_stereo_status>
1

> <i_f3d_flags>
0

> <s_epik_input>
W0hdXE49QyhbTkgyXSlcYyhbY0hdMSlzYyhjMTIpW2NIXVtjSF1bY0hdYzJPW0NASF0oQyg9TylbTkhdW0NIMl1bQ0gyXU4oW0NIM10pW0NIM10pYzNbY0hdW2NIXVtjSF1bY0hdW2NIXTM=

> <s_epik_cmdline>
J2VwaWtfcHl0aG9uJywgJy1waHQnLCAnMC41JywgJy1waCcsICc3LjUnLCAnLW50JywgJy1tYScsICcyMDAnLCAnLWltYWUnLCAnPGluZmlsZS5tYWU+JywgJy1vbWFlJywgJzxvdXRmaWxlLm1hZT4n

> <r_lp_tautomer_probability>
1

> <r_epik_Ionization_Penalty>
  0.0292

> <r_epik_Ionization_Penalty_Charging>
  0.0292

> <r_epik_Ionization_Penalty_Neutral>
  0.0000

> <r_epik_State_Penalty>
 -0.0000

> <r_epik_Charging_Adjusted_Penalty>
0.0292272827612927

> <i_epik_Tot_Q>
2

> <i_epik_Tot_abs_Q>
2

> <s_epik_Chemistry_Notes>
This compound has an imine and may undergo hydrolysis.

> <s_lp_Force_Field>
OPLS3e

> <r_lp_Energy>
39.119819

> <b_lp_Chiralities_Consistent>
1

> <s_lp_Variant>
sdf/inactives_sanitized.sdf:164-1

$$$$
sdf/inactives_sanitized.sdf:165
                    3D
 Schrodinger Suite 2020-1.
 41 43  0  0  1  0            999 V2000
    0.0668    2.7055   -0.3250 C   0  0  0  0  0  0
   -0.5721    3.9359   -0.4295 C   0  0  0  0  0  0
   -1.9594    4.0323   -0.3905 C   0  0  0  0  0  0
   -0.6657    1.5188   -0.1757 C   0  0  0  0  0  0
   -2.0736    1.5798   -0.1309 C   0  0  0  0  0  0
   -2.7036    2.8537   -0.2409 C   0  0  0  0  0  0
   -4.4522    2.7173   -0.1670 S   0  0  0  0  0  0
   -4.3470    0.9712    0.0204 C   0  0  0  0  0  0
   -3.0308    0.5340    0.0132 C   0  0  0  0  0  0
   -5.4847    0.1939    0.1326 C   0  0  0  0  0  0
   -6.5405    0.6777    0.7747 N   0  0  0  0  0  0
   -5.4803   -1.0212   -0.4008 N   0  3  0  0  0  0
   -0.1350    0.2463   -0.0709 O   0  0  0  0  0  0
    1.2836    0.0582   -0.0591 C   0  0  2  0  0  0
    1.6155   -1.4021   -0.4159 C   0  0  0  0  0  0
    1.8524    0.3921    1.3244 C   0  0  0  0  0  0
    2.9282   -1.5780   -0.6844 O   0  0  0  0  0  0
    3.4259   -2.8588   -1.0421 C   0  0  0  0  0  0
    0.7479   -2.2791   -0.4547 O   0  0  0  0  0  0
    2.9126    1.2971    1.4319 C   0  0  0  0  0  0
    3.4326    1.6177    2.6832 C   0  0  0  0  0  0
    2.8900    1.0349    3.8262 C   0  0  0  0  0  0
    1.8307    0.1353    3.7303 C   0  0  0  0  0  0
    1.3103   -0.1855    2.4797 C   0  0  0  0  0  0
    1.1449    2.6924   -0.3635 H   0  0  0  0  0  0
    0.0202    4.8321   -0.5441 H   0  0  0  0  0  0
   -2.4452    4.9936   -0.4744 H   0  0  0  0  0  0
   -2.7511   -0.5047    0.1125 H   0  0  0  0  0  0
   -7.3764    0.1188    0.8623 H   0  0  0  0  0  0
   -6.5019    1.6050    1.1723 H   0  0  0  0  0  0
   -6.3002   -1.6056   -0.3293 H   0  0  0  0  0  0
    1.7464    0.6812   -0.8257 H   0  0  0  0  0  0
    4.4999   -2.8021   -1.2199 H   0  0  0  0  0  0
    2.9499   -3.2232   -1.9538 H   0  0  0  0  0  0
    3.2510   -3.5835   -0.2456 H   0  0  0  0  0  0
    3.3366    1.7513    0.5482 H   0  0  0  0  0  0
    4.2529    2.3152    2.7674 H   0  0  0  0  0  0
    3.2940    1.2835    4.7965 H   0  0  0  0  0  0
    1.4146   -0.3109    4.6216 H   0  0  0  0  0  0
    0.4870   -0.8815    2.4069 H   0  0  0  0  0  0
   -4.6568   -1.3540   -0.8810 H   0  0  0  0  0  0
  1  2  2  0  0  0
  1  4  1  0  0  0
  1 25  1  0  0  0
  2  3  1  0  0  0
  2 26  1  0  0  0
  3  6  2  0  0  0
  3 27  1  0  0  0
  4 13  1  0  0  0
  4  5  2  0  0  0
  5  9  1  0  0  0
  5  6  1  0  0  0
  6  7  1  0  0  0
  7  8  1  0  0  0
  8  9  2  0  0  0
  8 10  1  0  0  0
  9 28  1  0  0  0
 10 12  2  0  0  0
 10 11  1  0  0  0
 11 29  1  0  0  0
 11 30  1  0  0  0
 12 31  1  0  0  0
 12 41  1  0  0  0
 13 14  1  0  0  0
 14 15  1  0  0  0
 14 16  1  0  0  0
 14 32  1  0  0  0
 15 17  1  0  0  0
 15 19  2  0  0  0
 16 20  2  0  0  0
 16 24  1  0  0  0
 17 18  1  0  0  0
 18 33  1  0  0  0
 18 34  1  0  0  0
 18 35  1  0  0  0
 20 21  1  0  0  0
 20 36  1  0  0  0
 21 22  2  0  0  0
 21 37  1  0  0  0
 22 23  1  0  0  0
 22 38  1  0  0  0
 23 24  2  0  0  0
 23 39  1  0  0  0
 24 40  1  0  0  0
M  CHG  1  12   1
M  END
> <chembl_id>
CHEMBL609911

> <chembl_pref_name>
None

> <s_m_source_file>
sdf/inactives_sanitized.sdf

> <i_m_source_file_index>
165

> <i_lp_mmshare_version>
49012

> <i_m_ct_stereo_status>
1

> <i_f3d_flags>
0

> <s_epik_input>
W0hdXE49QyhbTkgyXSlcYyhbY0hdMSlzYyhjMTIpW2NIXVtjSF1bY0hdYzJPW0NASF0oQyg9TylPW0NIM10pYzNbY0hdW2NIXVtjSF1bY0hdW2NIXTM=

> <s_epik_cmdline>
J2VwaWtfcHl0aG9uJywgJy1waHQnLCAnMC41JywgJy1waCcsICc3LjUnLCAnLW50JywgJy1tYScsICcyMDAnLCAnLWltYWUnLCAnPGluZmlsZS5tYWU+JywgJy1vbWFlJywgJzxvdXRmaWxlLm1hZT4n

> <r_lp_tautomer_probability>
1

> <r_epik_Ionization_Penalty>
  0.0095

> <r_epik_Ionization_Penalty_Charging>
  0.0095

> <r_epik_Ionization_Penalty_Neutral>
  0.0000

> <r_epik_State_Penalty>
 -0.0000

> <r_epik_Charging_Adjusted_Penalty>
0.00945881282357717

> <i_epik_Tot_Q>
1

> <i_epik_Tot_abs_Q>
1

> <s_epik_Chemistry_Notes>
This compound has an ester and may undergo hydrolysis at high or low pH. This compound has an imine and may undergo hydrolysis.

> <s_lp_Force_Field>
OPLS3e

> <r_lp_Energy>
31.714315

> <b_lp_Chiralities_Consistent>
1

> <s_lp_Variant>
sdf/inactives_sanitized.sdf:165-1

$$$$
sdf/inactives_sanitized.sdf:166
                    3D
 Schrodinger Suite 2020-1.
 53 56  0  0  1  0            999 V2000
   -0.0628    2.7429   -0.0703 C   0  0  0  0  0  0
   -0.7470    3.9525   -0.1120 C   0  0  0  0  0  0
   -2.1376    3.9940   -0.0940 C   0  0  0  0  0  0
   -0.7510    1.5223   -0.0088 C   0  0  0  0  0  0
   -2.1608    1.5273    0.0136 C   0  0  0  0  0  0
   -2.8379    2.7810   -0.0320 C   0  0  0  0  0  0
   -4.5810    2.5742   -0.0006 S   0  0  0  0  0  0
   -4.4108    0.8244    0.0601 C   0  0  0  0  0  0
   -3.0787    0.4390    0.0720 C   0  0  0  0  0  0
   -5.5189   -0.0001    0.1087 C   0  0  0  0  0  0
   -6.6076    0.3374   -0.5705 N   0  0  0  0  0  0
   -5.4526   -1.1133    0.8276 N   0  3  0  0  0  0
   -0.1709    0.2672    0.0407 O   0  0  0  0  0  0
    1.2496    0.1214   -0.0880 C   0  0  2  0  0  0
    1.5381   -1.3448   -0.4642 C   0  0  0  0  0  0
    1.9705    0.4786    1.2188 C   0  0  0  0  0  0
    2.5774   -1.5381   -1.3058 N   0  0  0  0  0  0
    3.0983   -2.7538   -1.7935 C   0  0  0  0  0  0
    0.8233   -2.2453   -0.0175 O   0  0  0  0  0  0
    3.2900    0.9419    1.1686 C   0  0  0  0  0  0
    3.9694    1.2496    2.3441 C   0  0  0  0  0  0
    3.3325    1.0861    3.5718 C   0  0  0  0  0  0
    2.0233    0.6147    3.6349 C   0  0  0  0  0  0
    1.3433    0.3074    2.4596 C   0  0  0  0  0  0
    3.7522   -2.7311   -3.0397 C   0  0  0  0  0  0
    4.2945   -3.9277   -3.5432 C   0  0  0  0  0  0
    4.1976   -5.1156   -2.8219 C   0  0  0  0  0  0
    3.5621   -5.1288   -1.5844 C   0  0  0  0  0  0
    3.0174   -3.9555   -1.0690 C   0  0  0  0  0  0
    3.8226   -1.5218   -3.7135 O   0  0  0  0  0  0
    4.4620   -1.4608   -4.9839 C   0  0  0  0  0  0
    1.0160    2.7714   -0.0803 H   0  0  0  0  0  0
   -0.1871    4.8753   -0.1577 H   0  0  0  0  0  0
   -2.6590    4.9398   -0.1269 H   0  0  0  0  0  0
   -2.7603   -0.5926    0.1099 H   0  0  0  0  0  0
   -7.4216   -0.2589   -0.5463 H   0  0  0  0  0  0
   -6.6139    1.1890   -1.1132 H   0  0  0  0  0  0
   -6.2508   -1.7292    0.8761 H   0  0  0  0  0  0
    1.6116    0.7598   -0.8981 H   0  0  0  0  0  0
    3.0010   -0.7116   -1.7020 H   0  0  0  0  0  0
    3.7903    1.0643    0.2187 H   0  0  0  0  0  0
    4.9868    1.6099    2.3043 H   0  0  0  0  0  0
    3.8610    1.3221    4.4839 H   0  0  0  0  0  0
    1.5394    0.4838    4.5917 H   0  0  0  0  0  0
    0.3315   -0.0669    2.5170 H   0  0  0  0  0  0
    4.7989   -3.9569   -4.4969 H   0  0  0  0  0  0
    4.6209   -6.0258   -3.2206 H   0  0  0  0  0  0
    3.4961   -6.0473   -1.0202 H   0  0  0  0  0  0
    2.5519   -3.9961   -0.0962 H   0  0  0  0  0  0
    4.4147   -0.4395   -5.3614 H   0  0  0  0  0  0
    3.9663   -2.1039   -5.7125 H   0  0  0  0  0  0
    5.5147   -1.7388   -4.9159 H   0  0  0  0  0  0
   -4.6050   -1.3356    1.3292 H   0  0  0  0  0  0
  1  4  2  0  0  0
  1  2  1  0  0  0
  1 32  1  0  0  0
  2  3  2  0  0  0
  2 33  1  0  0  0
  3  6  1  0  0  0
  3 34  1  0  0  0
  4  5  1  0  0  0
  4 13  1  0  0  0
  5  9  1  0  0  0
  5  6  2  0  0  0
  6  7  1  0  0  0
  7  8  1  0  0  0
  8  9  2  0  0  0
  8 10  1  0  0  0
  9 35  1  0  0  0
 10 11  1  0  0  0
 10 12  2  0  0  0
 11 36  1  0  0  0
 11 37  1  0  0  0
 12 38  1  0  0  0
 12 53  1  0  0  0
 13 14  1  0  0  0
 14 15  1  0  0  0
 14 16  1  0  0  0
 14 39  1  0  0  0
 15 17  1  0  0  0
 15 19  2  0  0  0
 16 20  2  0  0  0
 16 24  1  0  0  0
 17 18  1  0  0  0
 17 40  1  0  0  0
 18 25  2  0  0  0
 18 29  1  0  0  0
 20 21  1  0  0  0
 20 41  1  0  0  0
 21 22  2  0  0  0
 21 42  1  0  0  0
 22 23  1  0  0  0
 22 43  1  0  0  0
 23 24  2  0  0  0
 23 44  1  0  0  0
 24 45  1  0  0  0
 25 26  1  0  0  0
 25 30  1  0  0  0
 26 27  2  0  0  0
 26 46  1  0  0  0
 27 28  1  0  0  0
 27 47  1  0  0  0
 28 29  2  0  0  0
 28 48  1  0  0  0
 29 49  1  0  0  0
 30 31  1  0  0  0
 31 50  1  0  0  0
 31 51  1  0  0  0
 31 52  1  0  0  0
M  CHG  1  12   1
M  END
> <chembl_id>
CHEMBL597763

> <chembl_pref_name>
None

> <s_m_source_file>
sdf/inactives_sanitized.sdf

> <i_m_source_file_index>
166

> <i_lp_mmshare_version>
49012

> <i_m_ct_stereo_status>
1

> <i_f3d_flags>
0

> <s_epik_input>
W0hdXE49QyhbTkgyXSlcYyhbY0hdMSlzYyhjMTIpW2NIXVtjSF1bY0hdYzJPW0NAQEhdKGMzW2NIXVtjSF1bY0hdW2NIXVtjSF0zKUMoPU8pW05IXWM0YyhPW0NIM10pW2NIXVtjSF1bY0hdW2NIXTQ=

> <s_epik_cmdline>
J2VwaWtfcHl0aG9uJywgJy1waHQnLCAnMC41JywgJy1waCcsICc3LjUnLCAnLW50JywgJy1tYScsICcyMDAnLCAnLWltYWUnLCAnPGluZmlsZS5tYWU+JywgJy1vbWFlJywgJzxvdXRmaWxlLm1hZT4n

> <r_lp_tautomer_probability>
1

> <r_epik_Ionization_Penalty>
  0.0095

> <r_epik_Ionization_Penalty_Charging>
  0.0095

> <r_epik_Ionization_Penalty_Neutral>
  0.0000

> <r_epik_State_Penalty>
 -0.0000

> <r_epik_Charging_Adjusted_Penalty>
0.00945881282357717

> <i_epik_Tot_Q>
1

> <i_epik_Tot_abs_Q>
1

> <s_epik_Chemistry_Notes>
This compound has an imine and may undergo hydrolysis.

> <s_lp_Force_Field>
OPLS3e

> <r_lp_Energy>
48.273967

> <b_lp_Chiralities_Consistent>
1

> <s_lp_Variant>
sdf/inactives_sanitized.sdf:166-1

$$$$
sdf/inactives_sanitized.sdf:167
                    3D
 Schrodinger Suite 2020-1.
 45 48  0  0  1  0            999 V2000
   -0.0749    0.1339    0.0653 O   0  0  0  0  0  0
   -0.8406    1.3293   -0.0530 C   0  0  0  0  0  0
   -2.3167    0.9698   -0.0579 C   0  0  0  0  0  0
   -2.9936    0.8082   -1.2699 C   0  0  0  0  0  0
   -5.0137    0.2919   -0.0613 C   0  0  0  0  0  0
   -4.3425    0.4494    1.1498 C   0  0  0  0  0  0
   -4.3445    0.4700   -1.2707 C   0  0  0  0  0  0
   -2.9917    0.7880    1.1520 C   0  0  0  0  0  0
    4.2087    2.6831   -0.0390 C   0  0  0  0  0  0
    5.3464    2.7756   -0.8462 C   0  0  0  0  0  0
    6.0896    3.9483   -0.9421 C   0  0  0  0  0  0
    3.7981    3.8022    0.6979 C   0  0  0  0  0  0
    4.5205    5.0061    0.6324 C   0  0  0  0  0  0
    5.6718    5.0596   -0.2002 C   0  0  0  0  0  0
    6.4297    6.6419   -0.1483 S   0  0  0  0  0  0
    5.2204    7.2252    0.9894 C   0  0  0  0  0  0
    4.2854    6.2448    1.2912 C   0  0  0  0  0  0
    5.2527    8.5244    1.4618 C   0  0  0  0  0  0
    6.4247    9.1089    1.6760 N   0  0  0  0  0  0
    4.1032    9.1452    1.6942 N   0  3  0  0  0  0
    3.4416    1.4071    0.0398 C   0  0  0  0  0  0
    4.1046    0.1774    0.1454 C   0  0  0  0  0  0
    1.9974   -0.9952    0.1964 C   0  0  0  0  0  0
    1.3044    0.2112    0.0891 C   0  0  0  0  0  0
    3.3895   -1.0155    0.2239 C   0  0  0  0  0  0
    2.0390    1.4075    0.0122 C   0  0  0  0  0  0
   -6.3250   -0.0379   -0.0629 F   0  0  0  0  0  0
   -0.6364    2.0057    0.7794 H   0  0  0  0  0  0
   -0.5878    1.8623   -0.9720 H   0  0  0  0  0  0
   -2.4764    0.9415   -2.2090 H   0  0  0  0  0  0
   -4.8673    0.3078    2.0832 H   0  0  0  0  0  0
   -4.8711    0.3443   -2.2052 H   0  0  0  0  0  0
   -2.4717    0.9057    2.0918 H   0  0  0  0  0  0
    5.6652    1.9189   -1.4226 H   0  0  0  0  0  0
    6.9647    3.9947   -1.5741 H   0  0  0  0  0  0
    2.9240    3.7374    1.3296 H   0  0  0  0  0  0
    3.4580    6.4022    1.9672 H   0  0  0  0  0  0
    6.4597   10.0578    2.0184 H   0  0  0  0  0  0
    7.2777    8.6009    1.4926 H   0  0  0  0  0  0
    4.1043   10.0934    2.0400 H   0  0  0  0  0  0
    5.1840    0.1395    0.1752 H   0  0  0  0  0  0
    1.4515   -1.9254    0.2576 H   0  0  0  0  0  0
    3.9146   -1.9556    0.3076 H   0  0  0  0  0  0
    1.5263    2.3532   -0.0768 H   0  0  0  0  0  0
    3.2316    8.6690    1.5138 H   0  0  0  0  0  0
  1  2  1  0  0  0
  1 24  1  0  0  0
  2  3  1  0  0  0
  2 28  1  0  0  0
  2 29  1  0  0  0
  3  8  2  0  0  0
  3  4  1  0  0  0
  4  7  2  0  0  0
  4 30  1  0  0  0
  5  7  1  0  0  0
  5  6  2  0  0  0
  5 27  1  0  0  0
  6  8  1  0  0  0
  6 31  1  0  0  0
  7 32  1  0  0  0
  8 33  1  0  0  0
  9 10  2  0  0  0
  9 21  1  0  0  0
  9 12  1  0  0  0
 10 11  1  0  0  0
 10 34  1  0  0  0
 11 14  2  0  0  0
 11 35  1  0  0  0
 12 13  2  0  0  0
 12 36  1  0  0  0
 13 17  1  0  0  0
 13 14  1  0  0  0
 14 15  1  0  0  0
 15 16  1  0  0  0
 16 17  2  0  0  0
 16 18  1  0  0  0
 17 37  1  0  0  0
 18 19  1  0  0  0
 18 20  2  0  0  0
 19 38  1  0  0  0
 19 39  1  0  0  0
 20 40  1  0  0  0
 20 45  1  0  0  0
 21 22  2  0  0  0
 21 26  1  0  0  0
 22 25  1  0  0  0
 22 41  1  0  0  0
 23 24  1  0  0  0
 23 25  2  0  0  0
 23 42  1  0  0  0
 24 26  2  0  0  0
 25 43  1  0  0  0
 26 44  1  0  0  0
M  CHG  1  20   1
M  END
> <chembl_id>
CHEMBL598178

> <chembl_pref_name>
None

> <s_m_source_file>
sdf/inactives_sanitized.sdf

> <i_m_source_file_index>
167

> <i_lp_mmshare_version>
49012

> <i_m_ct_stereo_status>
1

> <i_f3d_flags>
0

> <s_epik_input>
W2NIXTFbY0hdYyhGKVtjSF1bY0hdYzFbQ0gyXU9jKFtjSF0yKVtjSF1bY0hdW2NIXWMyLWMoW2NIXTMpW2NIXVtjSF1jKGMzNClzYyhbY0hdNCkvQyhbTkgyXSk9Ti9bSF0=

> <s_epik_cmdline>
J2VwaWtfcHl0aG9uJywgJy1waHQnLCAnMC41JywgJy1waCcsICc3LjUnLCAnLW50JywgJy1tYScsICcyMDAnLCAnLWltYWUnLCAnPGluZmlsZS5tYWU+JywgJy1vbWFlJywgJzxvdXRmaWxlLm1hZT4n

> <r_lp_tautomer_probability>
1

> <r_epik_Ionization_Penalty>
  0.0095

> <r_epik_Ionization_Penalty_Charging>
  0.0095

> <r_epik_Ionization_Penalty_Neutral>
  0.0000

> <r_epik_State_Penalty>
 -0.0000

> <r_epik_Charging_Adjusted_Penalty>
0.00945881282357717

> <i_epik_Tot_Q>
1

> <i_epik_Tot_abs_Q>
1

> <s_epik_Chemistry_Notes>
This compound has an imine and may undergo hydrolysis.

> <s_lp_Force_Field>
OPLS3e

> <r_lp_Energy>
32.002606

> <b_lp_Chiralities_Consistent>
1

> <s_lp_Variant>
sdf/inactives_sanitized.sdf:167-1

$$$$
sdf/inactives_sanitized.sdf:168
                    3D
 Schrodinger Suite 2020-1.
 49 52  0  0  1  0            999 V2000
   -0.0907    0.1304   -0.1306 O   0  0  0  0  0  0
   -0.8576    1.3275   -0.0307 C   0  0  0  0  0  0
   -2.3381    0.9702   -0.0108 C   0  0  0  0  0  0
   -3.1485    1.3472   -1.0874 C   0  0  0  0  0  0
   -5.0634    0.3466   -0.0184 C   0  0  0  0  0  0
   -4.2646   -0.0289    1.0605 C   0  0  0  0  0  0
   -4.5060    1.0353   -1.0919 C   0  0  0  0  0  0
   -2.8921    0.2788    1.0806 C   0  0  0  0  0  0
    4.1927    2.6746    0.0458 C   0  0  0  0  0  0
    5.3213    2.7658    0.8662 C   0  0  0  0  0  0
    6.0632    3.9383    0.9726 C   0  0  0  0  0  0
    3.7907    3.7950   -0.6940 C   0  0  0  0  0  0
    4.5118    4.9990   -0.6171 C   0  0  0  0  0  0
    5.6541    5.0509    0.2280 C   0  0  0  0  0  0
    6.4132    6.6328    0.1870 S   0  0  0  0  0  0
    5.2155    7.2190   -0.9616 C   0  0  0  0  0  0
    4.2831    6.2398   -1.2747 C   0  0  0  0  0  0
    5.2541    8.5185   -1.4316 C   0  0  0  0  0  0
    6.4292    9.0990   -1.6392 N   0  0  0  0  0  0
    4.1075    9.1424   -1.6701 N   0  3  0  0  0  0
    3.4257    1.3989   -0.0433 C   0  0  0  0  0  0
    4.0887    0.1681   -0.1368 C   0  0  0  0  0  0
    1.9812   -1.0017   -0.2221 C   0  0  0  0  0  0
    1.2884    0.2056   -0.1278 C   0  0  0  0  0  0
    3.3735   -1.0240   -0.2262 C   0  0  0  0  0  0
    2.0230    1.4008   -0.0384 C   0  0  0  0  0  0
   -2.0456   -0.0610    2.1216 O   0  0  0  0  0  0
   -2.5629   -0.7705    3.2418 C   0  0  0  0  0  0
   -0.6355    1.9862   -0.8728 H   0  0  0  0  0  0
   -0.6155    1.8714    0.8845 H   0  0  0  0  0  0
   -2.7283    1.8807   -1.9277 H   0  0  0  0  0  0
   -6.1158    0.1035   -0.0212 H   0  0  0  0  0  0
   -4.7320   -0.5599    1.8757 H   0  0  0  0  0  0
   -5.1254    1.3270   -1.9272 H   0  0  0  0  0  0
    5.6338    1.9083    1.4446 H   0  0  0  0  0  0
    6.9306    3.9830    1.6153 H   0  0  0  0  0  0
    2.9240    3.7313   -1.3359 H   0  0  0  0  0  0
    3.4626    6.3990   -1.9587 H   0  0  0  0  0  0
    6.4698   10.0484   -1.9798 H   0  0  0  0  0  0
    7.2795    8.5867   -1.4541 H   0  0  0  0  0  0
    4.1128   10.0920   -2.0120 H   0  0  0  0  0  0
    5.1684    0.1285   -0.1481 H   0  0  0  0  0  0
    1.4343   -1.9308   -0.2925 H   0  0  0  0  0  0
    3.8979   -1.9652   -0.3009 H   0  0  0  0  0  0
    1.5099    2.3472    0.0419 H   0  0  0  0  0  0
   -1.7599   -0.9482    3.9570 H   0  0  0  0  0  0
   -2.9645   -1.7418    2.9491 H   0  0  0  0  0  0
   -3.3393   -0.1999    3.7534 H   0  0  0  0  0  0
    3.2339    8.6671   -1.4970 H   0  0  0  0  0  0
  1 24  1  0  0  0
  1  2  1  0  0  0
  2  3  1  0  0  0
  2 29  1  0  0  0
  2 30  1  0  0  0
  3  8  2  0  0  0
  3  4  1  0  0  0
  4  7  2  0  0  0
  4 31  1  0  0  0
  5  7  1  0  0  0
  5  6  2  0  0  0
  5 32  1  0  0  0
  6  8  1  0  0  0
  6 33  1  0  0  0
  7 34  1  0  0  0
  8 27  1  0  0  0
  9 10  2  0  0  0
  9 21  1  0  0  0
  9 12  1  0  0  0
 10 11  1  0  0  0
 10 35  1  0  0  0
 11 14  2  0  0  0
 11 36  1  0  0  0
 12 13  2  0  0  0
 12 37  1  0  0  0
 13 17  1  0  0  0
 13 14  1  0  0  0
 14 15  1  0  0  0
 15 16  1  0  0  0
 16 17  2  0  0  0
 16 18  1  0  0  0
 17 38  1  0  0  0
 18 19  1  0  0  0
 18 20  2  0  0  0
 19 39  1  0  0  0
 19 40  1  0  0  0
 20 41  1  0  0  0
 20 49  1  0  0  0
 21 22  2  0  0  0
 21 26  1  0  0  0
 22 25  1  0  0  0
 22 42  1  0  0  0
 23 24  1  0  0  0
 23 25  2  0  0  0
 23 43  1  0  0  0
 24 26  2  0  0  0
 25 44  1  0  0  0
 26 45  1  0  0  0
 27 28  1  0  0  0
 28 46  1  0  0  0
 28 47  1  0  0  0
 28 48  1  0  0  0
M  CHG  1  20   1
M  END
> <chembl_id>
CHEMBL599626

> <chembl_pref_name>
None

> <s_m_source_file>
sdf/inactives_sanitized.sdf

> <i_m_source_file_index>
168

> <i_lp_mmshare_version>
49012

> <i_m_ct_stereo_status>
1

> <i_f3d_flags>
0

> <s_epik_input>
W0NIM11PYzFbY0hdW2NIXVtjSF1bY0hdYzFbQ0gyXU9jKFtjSF0yKVtjSF1bY0hdW2NIXWMyLWMoW2NIXTMpW2NIXVtjSF1jKGMzNClzYyhbY0hdNCkvQyhbTkgyXSk9Ti9bSF0=

> <s_epik_cmdline>
J2VwaWtfcHl0aG9uJywgJy1waHQnLCAnMC41JywgJy1waCcsICc3LjUnLCAnLW50JywgJy1tYScsICcyMDAnLCAnLWltYWUnLCAnPGluZmlsZS5tYWU+JywgJy1vbWFlJywgJzxvdXRmaWxlLm1hZT4n

> <r_lp_tautomer_probability>
1

> <r_epik_Ionization_Penalty>
  0.0095

> <r_epik_Ionization_Penalty_Charging>
  0.0095

> <r_epik_Ionization_Penalty_Neutral>
  0.0000

> <r_epik_State_Penalty>
 -0.0000

> <r_epik_Charging_Adjusted_Penalty>
0.00945881282357717

> <i_epik_Tot_Q>
1

> <i_epik_Tot_abs_Q>
1

> <s_epik_Chemistry_Notes>
This compound has an imine and may undergo hydrolysis.

> <s_lp_Force_Field>
OPLS3e

> <r_lp_Energy>
35.342484

> <b_lp_Chiralities_Consistent>
1

> <s_lp_Variant>
sdf/inactives_sanitized.sdf:168-1

$$$$
sdf/inactives_sanitized.sdf:169
                    3D
 Schrodinger Suite 2020-1.
 49 52  0  0  1  0            999 V2000
    0.0185    0.2398    0.1198 O   0  0  0  0  0  0
    4.4316    2.5605   -0.0614 C   0  0  0  0  0  0
    4.0667    3.5979   -0.9252 C   0  0  0  0  0  0
    4.8163    4.7653   -1.0346 C   0  0  0  0  0  0
    5.5877    2.6939    0.7192 C   0  0  0  0  0  0
    6.3738    3.8562    0.6406 C   0  0  0  0  0  0
    5.9680    4.8889   -0.2484 C   0  0  0  0  0  0
    7.0759    6.2497   -0.2013 S   0  0  0  0  0  0
    8.0705    5.4455    1.0073 C   0  0  0  0  0  0
    7.5682    4.1944    1.3353 C   0  0  0  0  0  0
    9.2125    6.0445    1.5050 C   0  0  0  0  0  0
    9.2279    7.3583    1.6907 N   0  0  0  0  0  0
   10.2591    5.2794    1.7883 N   0  3  0  0  0  0
    3.6003    1.3255    0.0274 C   0  0  0  0  0  0
    4.1986    0.0603    0.0922 C   0  0  0  0  0  0
    2.0332   -0.9981    0.1820 C   0  0  0  0  0  0
    1.4037    0.2452    0.1111 C   0  0  0  0  0  0
    3.4223   -1.0938    0.1722 C   0  0  0  0  0  0
    2.2001    1.4011    0.0449 C   0  0  0  0  0  0
   -0.7463    1.4427   -0.0719 C   0  0  2  0  0  0
   -2.2064    1.1393    0.2742 C   0  0  0  0  0  0
   -0.6245    1.9771   -1.5215 C   0  0  0  0  0  0
   -2.8887    1.9465    1.1910 C   0  0  0  0  0  0
   -4.2204    1.6812    1.4999 C   0  0  0  0  0  0
   -4.8707    0.6081    0.8946 C   0  0  0  0  0  0
   -4.1997   -0.2028   -0.0179 C   0  0  0  0  0  0
   -2.8689    0.0626   -0.3288 C   0  0  0  0  0  0
   -6.1638    0.3517    1.1953 F   0  0  0  0  0  0
   -0.1701    1.2790   -2.4265 O   0  0  0  0  0  0
   -1.0321    3.2303   -1.7434 N   0  0  0  0  0  0
    3.1812    3.4987   -1.5369 H   0  0  0  0  0  0
    4.5133    5.5515   -1.7110 H   0  0  0  0  0  0
    5.8744    1.8999    1.3934 H   0  0  0  0  0  0
    8.0342    3.5380    2.0552 H   0  0  0  0  0  0
   10.0553    7.8063    2.0561 H   0  0  0  0  0  0
    8.4094    7.9050    1.4655 H   0  0  0  0  0  0
   11.1028    5.6960    2.1539 H   0  0  0  0  0  0
    5.2745   -0.0362    0.0747 H   0  0  0  0  0  0
    1.4392   -1.8986    0.2402 H   0  0  0  0  0  0
    3.8973   -2.0625    0.2221 H   0  0  0  0  0  0
    1.7379    2.3753    0.0060 H   0  0  0  0  0  0
   -0.3833    2.2036    0.6224 H   0  0  0  0  0  0
   -2.3920    2.7815    1.6636 H   0  0  0  0  0  0
   -4.7475    2.3060    2.2060 H   0  0  0  0  0  0
   -4.7090   -1.0337   -0.4832 H   0  0  0  0  0  0
   -2.3518   -0.5675   -1.0384 H   0  0  0  0  0  0
   -1.4140    3.7857   -0.9919 H   0  0  0  0  0  0
   -0.9757    3.6224   -2.6721 H   0  0  0  0  0  0
   10.2113    4.2847    1.6224 H   0  0  0  0  0  0
  1 17  1  0  0  0
  1 20  1  0  0  0
  2  3  2  0  0  0
  2  5  1  0  0  0
  2 14  1  0  0  0
  3  4  1  0  0  0
  3 31  1  0  0  0
  4  7  2  0  0  0
  4 32  1  0  0  0
  5  6  2  0  0  0
  5 33  1  0  0  0
  6 10  1  0  0  0
  6  7  1  0  0  0
  7  8  1  0  0  0
  8  9  1  0  0  0
  9 10  2  0  0  0
  9 11  1  0  0  0
 10 34  1  0  0  0
 11 12  1  0  0  0
 11 13  2  0  0  0
 12 35  1  0  0  0
 12 36  1  0  0  0
 13 37  1  0  0  0
 13 49  1  0  0  0
 14 19  2  0  0  0
 14 15  1  0  0  0
 15 18  2  0  0  0
 15 38  1  0  0  0
 16 17  2  0  0  0
 16 18  1  0  0  0
 16 39  1  0  0  0
 17 19  1  0  0  0
 18 40  1  0  0  0
 19 41  1  0  0  0
 20 21  1  0  0  0
 20 22  1  0  0  0
 20 42  1  0  0  0
 21 23  2  0  0  0
 21 27  1  0  0  0
 22 29  2  0  0  0
 22 30  1  0  0  0
 23 24  1  0  0  0
 23 43  1  0  0  0
 24 25  2  0  0  0
 24 44  1  0  0  0
 25 26  1  0  0  0
 25 28  1  0  0  0
 26 27  2  0  0  0
 26 45  1  0  0  0
 27 46  1  0  0  0
 30 47  1  0  0  0
 30 48  1  0  0  0
M  CHG  1  13   1
M  END
> <chembl_id>
CHEMBL598370

> <chembl_pref_name>
None

> <s_m_source_file>
sdf/inactives_sanitized.sdf

> <i_m_source_file_index>
169

> <i_lp_mmshare_version>
49012

> <i_m_ct_stereo_status>
1

> <i_f3d_flags>
0

> <s_epik_input>
W2NIXTFbY0hdYyhGKVtjSF1bY0hdYzFbQ0BIXShDKD1PKVtOSDJdKU9jKFtjSF0yKVtjSF1bY0hdW2NIXWMyLWMoW2NIXTMpW2NIXVtjSF1jKGMzNClzYyhbY0hdNCkvQyhbTkgyXSk9Ti9bSF0=

> <s_epik_cmdline>
J2VwaWtfcHl0aG9uJywgJy1waHQnLCAnMC41JywgJy1waCcsICc3LjUnLCAnLW50JywgJy1tYScsICcyMDAnLCAnLWltYWUnLCAnPGluZmlsZS5tYWU+JywgJy1vbWFlJywgJzxvdXRmaWxlLm1hZT4n

> <r_lp_tautomer_probability>
1

> <r_epik_Ionization_Penalty>
  0.0095

> <r_epik_Ionization_Penalty_Charging>
  0.0095

> <r_epik_Ionization_Penalty_Neutral>
  0.0000

> <r_epik_State_Penalty>
 -0.0000

> <r_epik_Charging_Adjusted_Penalty>
0.00945881282357717

> <i_epik_Tot_Q>
1

> <i_epik_Tot_abs_Q>
1

> <s_epik_Chemistry_Notes>
This compound has an imine and may undergo hydrolysis.

> <s_lp_Force_Field>
OPLS3e

> <r_lp_Energy>
33.34669

> <b_lp_Chiralities_Consistent>
1

> <s_lp_Variant>
sdf/inactives_sanitized.sdf:169-1

$$$$
sdf/inactives_sanitized.sdf:170
                    3D
 Schrodinger Suite 2020-1.
 84 88  0  0  1  0            999 V2000
   -0.3191   -0.6336   -3.6576 C   0  0  0  0  0  0
   -0.3365    0.0154   -4.8798 O   0  0  0  0  0  0
   -0.3031    1.4375   -4.9193 C   0  0  0  0  0  0
   -0.3036    0.0353   -2.4218 C   0  0  0  0  0  0
   -0.2584   -0.6656   -1.2119 C   0  0  0  0  0  0
   -0.2409   -2.0648   -1.2506 C   0  0  0  0  0  0
   -0.2659   -2.7413   -2.4669 C   0  0  0  0  0  0
   -0.3010   -2.0353   -3.6806 C   0  0  0  0  0  0
   -0.3096   -2.6451   -4.9228 O   0  0  0  0  0  0
   -0.2509   -4.0647   -5.0058 C   0  0  0  0  0  0
   -0.1578    0.1096    0.0898 C   0  0  2  0  0  0
    1.3346    0.4329    0.3667 C   0  0  0  0  0  0
    1.8127    1.6614    0.0323 N   0  0  0  0  0  0
    3.2607    1.9618   -0.0561 C   0  0  1  0  0  0
    3.9964    1.1318   -1.1260 C   0  0  0  0  0  0
    5.2558    0.5353   -0.9017 C   0  0  0  0  0  0
    5.8115   -0.2847   -1.8931 C   0  0  0  0  0  0
    5.1427   -0.5173   -3.0925 C   0  0  0  0  0  0
    3.8983    0.0767   -3.3245 C   0  0  0  0  0  0
    3.1682   -0.0975   -4.5075 N   0  0  0  0  0  0
    3.1156   -1.2325   -5.3076 C   0  0  0  0  0  0
    3.6978   -2.3023   -5.1125 O   0  0  0  0  0  0
    2.2951   -0.9840   -6.3472 O   0  0  0  0  0  0
    2.0538   -1.9735   -7.3372 C   0  0  0  0  0  0
    3.3497    0.9090   -2.3519 C   0  0  0  0  0  0
    6.2060    0.7714    0.6187 S   0  0  0  0  0  0
    6.0420    2.1698    1.0315 O   0  0  0  0  0  0
    5.3587   -0.3503    1.9022 C   0  0  0  0  0  0
    6.0771   -0.1913    3.2511 C   0  0  0  0  0  0
    5.3514   -1.8060    1.4055 C   0  0  0  0  0  0
    7.5578    0.2499    0.3824 O   0  0  0  0  0  0
    3.2970    3.4758   -0.3164 C   0  0  0  0  0  0
    1.9503    3.9799    0.1667 C   0  0  0  0  0  0
    0.9824    2.8531   -0.1763 C   0  0  0  0  0  0
    2.0728   -0.4881    0.7326 O   0  0  0  0  0  0
   -0.6721   -0.5782    1.2594 N   0  0  0  0  0  0
   -2.0056   -0.8654    1.5941 C   0  0  0  0  0  0
   -2.2769   -1.5633    2.7820 C   0  0  0  0  0  0
   -3.5940   -1.8625    3.1428 C   0  0  0  0  0  0
   -3.0702   -0.4718    0.7686 C   0  0  0  0  0  0
   -4.6437   -1.4644    2.3155 C   0  0  0  0  0  0
   -4.3777   -0.7790    1.1445 C   0  0  0  0  0  0
   -5.6617   -0.4715    0.4432 C   0  0  0  0  0  0
   -6.6125   -0.9904    1.2400 N   0  0  0  0  0  0
   -6.1264   -1.6428    2.4478 C   0  0  0  0  0  0
   -1.2677   -1.9557    3.5963 F   0  0  0  0  0  0
   -5.8368    0.1201   -0.6197 O   0  0  0  0  0  0
   -0.3057    1.7678   -5.9580 H   0  0  0  0  0  0
    0.6015    1.8288   -4.4511 H   0  0  0  0  0  0
   -1.1774    1.8717   -4.4321 H   0  0  0  0  0  0
   -0.3045    1.1138   -2.3848 H   0  0  0  0  0  0
   -0.1883   -2.6390   -0.3372 H   0  0  0  0  0  0
   -0.2454   -3.8201   -2.4461 H   0  0  0  0  0  0
   -0.2635   -4.3637   -6.0537 H   0  0  0  0  0  0
   -1.1090   -4.5311   -4.5196 H   0  0  0  0  0  0
    0.6685   -4.4518   -4.5637 H   0  0  0  0  0  0
   -0.7659    1.0084   -0.0056 H   0  0  0  0  0  0
    3.6636    1.7387    0.9290 H   0  0  0  0  0  0
    6.7708   -0.7568   -1.7429 H   0  0  0  0  0  0
    5.6061   -1.1502   -3.8348 H   0  0  0  0  0  0
    2.5451    0.6556   -4.7589 H   0  0  0  0  0  0
    1.3450   -1.5942   -8.0731 H   0  0  0  0  0  0
    1.6330   -2.8778   -6.8961 H   0  0  0  0  0  0
    2.9755   -2.2386   -7.8573 H   0  0  0  0  0  0
    2.3885    1.3673   -2.5373 H   0  0  0  0  0  0
    4.3328   -0.0026    2.0061 H   0  0  0  0  0  0
    5.6005   -0.7925    4.0259 H   0  0  0  0  0  0
    6.0580    0.8466    3.5848 H   0  0  0  0  0  0
    7.1220   -0.4963    3.1841 H   0  0  0  0  0  0
    4.8785   -2.4672    2.1322 H   0  0  0  0  0  0
    6.3628   -2.1727    1.2277 H   0  0  0  0  0  0
    4.7953   -1.9031    0.4729 H   0  0  0  0  0  0
    4.0835    3.9612    0.2627 H   0  0  0  0  0  0
    3.4438    3.7099   -1.3724 H   0  0  0  0  0  0
    1.9724    4.1312    1.2478 H   0  0  0  0  0  0
    1.6575    4.9296   -0.2818 H   0  0  0  0  0  0
    0.1189    2.9040    0.4881 H   0  0  0  0  0  0
    0.6955    2.9271   -1.2259 H   0  0  0  0  0  0
    0.0289   -0.9335    1.8946 H   0  0  0  0  0  0
   -3.7863   -2.3993    4.0602 H   0  0  0  0  0  0
   -2.8844    0.0621   -0.1520 H   0  0  0  0  0  0
   -7.5979   -0.9358    1.0266 H   0  0  0  0  0  0
   -6.5358   -1.1586    3.3351 H   0  0  0  0  0  0
   -6.4300   -2.6903    2.4661 H   0  0  0  0  0  0
  1  2  1  0  0  0
  1  4  2  0  0  0
  1  8  1  0  0  0
  2  3  1  0  0  0
  3 48  1  0  0  0
  3 49  1  0  0  0
  3 50  1  0  0  0
  4  5  1  0  0  0
  4 51  1  0  0  0
  5  6  2  0  0  0
  5 11  1  0  0  0
  6  7  1  0  0  0
  6 52  1  0  0  0
  7  8  2  0  0  0
  7 53  1  0  0  0
  8  9  1  0  0  0
  9 10  1  0  0  0
 10 54  1  0  0  0
 10 55  1  0  0  0
 10 56  1  0  0  0
 11 12  1  0  0  0
 11 36  1  0  0  0
 11 57  1  0  0  0
 12 13  1  0  0  0
 12 35  2  0  0  0
 13 14  1  0  0  0
 13 34  1  0  0  0
 14 15  1  0  0  0
 14 32  1  0  0  0
 14 58  1  0  0  0
 15 16  2  0  0  0
 15 25  1  0  0  0
 16 17  1  0  0  0
 16 26  1  0  0  0
 17 18  2  0  0  0
 17 59  1  0  0  0
 18 19  1  0  0  0
 18 60  1  0  0  0
 19 20  1  0  0  0
 19 25  2  0  0  0
 20 21  1  0  0  0
 20 61  1  0  0  0
 21 22  2  0  0  0
 21 23  1  0  0  0
 23 24  1  0  0  0
 24 62  1  0  0  0
 24 63  1  0  0  0
 24 64  1  0  0  0
 25 65  1  0  0  0
 26 27  2  0  0  0
 26 28  1  0  0  0
 26 31  2  0  0  0
 28 29  1  0  0  0
 28 30  1  0  0  0
 28 66  1  0  0  0
 29 67  1  0  0  0
 29 68  1  0  0  0
 29 69  1  0  0  0
 30 70  1  0  0  0
 30 71  1  0  0  0
 30 72  1  0  0  0
 32 33  1  0  0  0
 32 73  1  0  0  0
 32 74  1  0  0  0
 33 34  1  0  0  0
 33 75  1  0  0  0
 33 76  1  0  0  0
 34 77  1  0  0  0
 34 78  1  0  0  0
 36 37  1  0  0  0
 36 79  1  0  0  0
 37 38  2  0  0  0
 37 40  1  0  0  0
 38 39  1  0  0  0
 38 46  1  0  0  0
 39 41  2  0  0  0
 39 80  1  0  0  0
 40 42  2  0  0  0
 40 81  1  0  0  0
 41 42  1  0  0  0
 41 45  1  0  0  0
 42 43  1  0  0  0
 43 44  1  0  0  0
 43 47  2  0  0  0
 44 45  1  0  0  0
 44 82  1  0  0  0
 45 83  1  0  0  0
 45 84  1  0  0  0
M  END
> <chembl_id>
CHEMBL3962367

> <chembl_pref_name>
None

> <i_m_ct_stereo_status>
1

> <s_m_source_file>
sdf/inactives_sanitized.sdf

> <i_m_source_file_index>
170

> <i_lp_mmshare_version>
49012

> <i_f3d_flags>
0

> <s_epik_input>
W0NIMl0xW05IXUMoPU8pYyhjMTIpW2NIXWMoYyhGKVtjSF0yKVtOSF1bQ0BIXShjKFtjSF1jM09bQ0gzXSlbY0hdW2NIXWMzT1tDSDNdKUMoPU8pTjRbQ0BIXShbQ0gyXVtDSDJdW0NIMl00KWM1YyhTKD1PKSg9TylbQ0hdKFtDSDNdKVtDSDNdKVtjSF1bY0hdYyhbY0hdNSlbTkhdQyg9TylPW0NIM10=

> <s_epik_cmdline>
J2VwaWtfcHl0aG9uJywgJy1waHQnLCAnMC41JywgJy1waCcsICc3LjUnLCAnLW50JywgJy1tYScsICcyMDAnLCAnLWltYWUnLCAnPGluZmlsZS5tYWU+JywgJy1vbWFlJywgJzxvdXRmaWxlLm1hZT4n

> <r_lp_tautomer_probability>
1

> <r_epik_Ionization_Penalty>
  0.0000

> <r_epik_Ionization_Penalty_Charging>
  0.0000

> <r_epik_Ionization_Penalty_Neutral>
  0.0000

> <r_epik_State_Penalty>
 -0.0000

> <r_epik_Charging_Adjusted_Penalty>
0

> <i_epik_Tot_Q>
0

> <i_epik_Tot_abs_Q>
0

> <s_epik_Chemistry_Notes>
This compound has an ester and may undergo hydrolysis at high or low pH.

> <s_lp_Force_Field>
OPLS3e

> <r_lp_Energy>
50.581441

> <b_lp_Chiralities_Consistent>
1

> <s_lp_Variant>
sdf/inactives_sanitized.sdf:170-1

$$$$
sdf/inactives_sanitized.sdf:171
                    3D
 Schrodinger Suite 2020-1.
 72 76  0  0  1  0            999 V2000
   -0.1398    2.5134    0.0568 C   0  0  0  0  0  0
   -0.7518    1.3086   -0.2979 C   0  0  0  0  0  0
   -2.1411    1.2288   -0.3581 C   0  0  0  0  0  0
   -2.9372    2.3356   -0.0759 C   0  0  0  0  0  0
   -0.9172    3.6599    0.3478 C   0  0  0  0  0  0
   -2.3452    3.5772    0.2811 C   0  0  0  0  0  0
   -3.0962    4.7548    0.5779 C   0  0  0  0  0  0
   -2.4553    5.8903    0.9069 N   0  3  0  0  0  0
   -1.1184    6.0011    0.9790 C   0  0  0  0  0  0
   -0.3149    4.8964    0.7033 C   0  0  0  0  0  0
   -4.5085    4.7861    0.5397 N   0  0  0  0  0  0
   -0.0029    0.1644   -0.6075 N   0  0  0  0  0  0
    1.4353    0.0441   -0.7627 C   0  0  1  0  0  0
    1.7879   -1.4555   -0.9060 C   0  0  0  0  0  0
    3.0185   -1.8019   -0.4858 N   0  0  0  0  0  0
    1.0165   -2.2400   -1.4665 O   0  0  0  0  0  0
    2.0017    0.8072   -1.9431 C   0  0  0  0  0  0
    3.2088    1.4981   -1.7954 C   0  0  0  0  0  0
    3.7867    2.1450   -2.8830 C   0  0  0  0  0  0
    3.1730    2.0888   -4.1359 C   0  0  0  0  0  0
    1.9519    1.4282   -4.2841 C   0  0  0  0  0  0
    1.3672    0.7931   -3.1928 C   0  0  0  0  0  0
    3.6597   -3.0817   -0.8020 C   0  0  0  0  0  0
    3.9516   -3.3156   -2.2963 C   0  0  0  0  0  0
    3.7608   -4.5629   -2.9319 C   0  0  0  0  0  0
    3.9355   -4.6600   -4.3179 C   0  0  0  0  0  0
    4.3073   -3.5524   -5.0744 C   0  0  0  0  0  0
    4.5344   -2.3235   -4.4591 C   0  0  0  0  0  0
    4.3497   -2.2155   -3.0734 C   0  0  0  0  0  0
    4.8802   -1.2463   -5.2962 N   0  0  0  0  0  0
    5.4985   -0.0915   -4.9660 C   0  0  0  0  0  0
    5.6368    0.9451   -6.0898 C   0  0  0  0  0  0
    5.9770    0.1583   -3.8594 O   0  0  0  0  0  0
    3.8403    2.7328   -5.3454 C   0  0  0  0  0  0
    4.3422    1.7326   -6.4169 C   0  0  0  0  0  0
    3.2862   -6.0673   -2.0509 S   0  0  0  0  0  0
    1.4256   -5.8519   -1.7672 C   0  0  0  0  0  0
    3.4722   -7.1991   -2.9667 O   0  0  0  0  0  0
    3.9755   -6.0718   -0.7555 O   0  0  0  0  0  0
    0.8604   -7.0749   -1.0361 C   0  0  0  0  0  0
    0.9364    2.5930    0.1083 H   0  0  0  0  0  0
   -2.6179    0.2981   -0.6323 H   0  0  0  0  0  0
   -4.0121    2.2464   -0.1333 H   0  0  0  0  0  0
   -0.7387    6.9746    1.2547 H   0  0  0  0  0  0
    0.7618    4.9743    0.7565 H   0  0  0  0  0  0
   -5.0264    3.9547    0.2932 H   0  0  0  0  0  0
   -5.0049    5.6386    0.7566 H   0  0  0  0  0  0
   -0.5329   -0.6517   -0.8793 H   0  0  0  0  0  0
    1.8712    0.4225    0.1648 H   0  0  0  0  0  0
    3.6030   -1.0989   -0.0569 H   0  0  0  0  0  0
    3.7141    1.5186   -0.8407 H   0  0  0  0  0  0
    4.7300    2.6565   -2.7575 H   0  0  0  0  0  0
    1.4656    1.3874   -5.2480 H   0  0  0  0  0  0
    0.4370    0.2607   -3.3285 H   0  0  0  0  0  0
    4.6124   -3.1139   -0.2729 H   0  0  0  0  0  0
    3.0464   -3.8638   -0.3625 H   0  0  0  0  0  0
    3.7792   -5.5981   -4.8293 H   0  0  0  0  0  0
    4.4253   -3.6616   -6.1431 H   0  0  0  0  0  0
    4.4737   -1.2603   -2.5875 H   0  0  0  0  0  0
    4.6919   -1.3943   -6.2768 H   0  0  0  0  0  0
    6.4435    1.6402   -5.8513 H   0  0  0  0  0  0
    5.9656    0.4193   -6.9879 H   0  0  0  0  0  0
    3.1061    3.4000   -5.7996 H   0  0  0  0  0  0
    4.6576    3.3834   -5.0296 H   0  0  0  0  0  0
    3.5422    1.0452   -6.6968 H   0  0  0  0  0  0
    4.5411    2.3067   -7.3228 H   0  0  0  0  0  0
    1.2639   -4.9424   -1.1922 H   0  0  0  0  0  0
    0.9560   -5.7186   -2.7418 H   0  0  0  0  0  0
   -0.2116   -6.9681   -0.8691 H   0  0  0  0  0  0
    1.3371   -7.2073   -0.0644 H   0  0  0  0  0  0
    1.0185   -7.9866   -1.6129 H   0  0  0  0  0  0
   -3.0125    6.7079    1.1103 H   0  0  0  0  0  0
  1  5  2  0  0  0
  1  2  1  0  0  0
  1 41  1  0  0  0
  2  3  2  0  0  0
  2 12  1  0  0  0
  3  4  1  0  0  0
  3 42  1  0  0  0
  4  6  2  0  0  0
  4 43  1  0  0  0
  5  6  1  0  0  0
  5 10  1  0  0  0
  6  7  1  0  0  0
  7  8  2  0  0  0
  7 11  1  0  0  0
  8  9  1  0  0  0
  8 72  1  0  0  0
  9 10  2  0  0  0
  9 44  1  0  0  0
 10 45  1  0  0  0
 11 46  1  0  0  0
 11 47  1  0  0  0
 12 13  1  0  0  0
 12 48  1  0  0  0
 13 14  1  0  0  0
 13 17  1  0  0  0
 13 49  1  0  0  0
 14 15  1  0  0  0
 14 16  2  0  0  0
 15 23  1  0  0  0
 15 50  1  0  0  0
 17 18  2  0  0  0
 17 22  1  0  0  0
 18 19  1  0  0  0
 18 51  1  0  0  0
 19 20  2  0  0  0
 19 52  1  0  0  0
 20 21  1  0  0  0
 20 34  1  0  0  0
 21 22  2  0  0  0
 21 53  1  0  0  0
 22 54  1  0  0  0
 23 24  1  0  0  0
 23 55  1  0  0  0
 23 56  1  0  0  0
 24 25  2  0  0  0
 24 29  1  0  0  0
 25 26  1  0  0  0
 25 36  1  0  0  0
 26 27  2  0  0  0
 26 57  1  0  0  0
 27 28  1  0  0  0
 27 58  1  0  0  0
 28 29  2  0  0  0
 28 30  1  0  0  0
 29 59  1  0  0  0
 30 31  1  0  0  0
 30 60  1  0  0  0
 31 32  1  0  0  0
 31 33  2  0  0  0
 32 35  1  0  0  0
 32 61  1  0  0  0
 32 62  1  0  0  0
 34 35  1  0  0  0
 34 63  1  0  0  0
 34 64  1  0  0  0
 35 65  1  0  0  0
 35 66  1  0  0  0
 36 37  1  0  0  0
 36 38  2  0  0  0
 36 39  2  0  0  0
 37 40  1  0  0  0
 37 67  1  0  0  0
 37 68  1  0  0  0
 40 69  1  0  0  0
 40 70  1  0  0  0
 40 71  1  0  0  0
M  CHG  1   8   1
M  END
> <chembl_id>
CHEMBL3594310

> <chembl_pref_name>
None

> <i_m_ct_stereo_status>
1

> <s_m_source_file>
sdf/inactives_sanitized.sdf

> <i_m_source_file_index>
171

> <i_lp_mmshare_version>
49012

> <i_f3d_flags>
0

> <s_epik_input>
W2NIXTFbY0hdbmMoW05IMl0pYyhjMTIpW2NIXVtjSF1jKFtjSF0yKVtOSF1bQ0BIXTNDKD1PKVtOSF1bQ0gyXWMoW2NIXTQpYyhTKD1PKSg9TylbQ0gyXVtDSDNdKVtjSF1bY0hdYzRbTkhdQyg9TylbQ0gyXVtDSDJdW0NIMl1jKFtjSF1bY0hdYzM1KVtjSF1bY0hdNQ==

> <s_epik_cmdline>
J2VwaWtfcHl0aG9uJywgJy1waHQnLCAnMC41JywgJy1waCcsICc3LjUnLCAnLW50JywgJy1tYScsICcyMDAnLCAnLWltYWUnLCAnPGluZmlsZS5tYWU+JywgJy1vbWFlJywgJzxvdXRmaWxlLm1hZT4n

> <r_epik_Ionization_Penalty>
  0.0146

> <r_epik_Ionization_Penalty_Charging>
  0.0146

> <r_epik_Ionization_Penalty_Neutral>
  0.0000

> <r_epik_State_Penalty>
  0.0115

> <r_epik_Charging_Adjusted_Penalty>
0.0260960353672975

> <i_epik_Tot_Q>
1

> <i_epik_Tot_abs_Q>
1

> <s_lp_Force_Field>
OPLS3e

> <r_lp_Energy>
56.979512

> <b_lp_Chiralities_Consistent>
1

> <s_lp_Variant>
sdf/inactives_sanitized.sdf:171-1

$$$$
sdf/inactives_sanitized.sdf:172
                    3D
 Schrodinger Suite 2020-1.
 71 75  0  0  1  0            999 V2000
   -3.3661    1.3344    0.2712 C   0  0  0  0  0  0
   -2.1922    0.5400    0.3696 O   0  0  0  0  0  0
   -0.9763    1.0707    0.1293 C   0  0  0  0  0  0
   -0.7813    2.2475   -0.1822 O   0  0  0  0  0  0
   -0.0224    0.0727    0.3054 N   0  0  0  0  0  0
    1.3730    0.1305    0.1499 C   0  0  0  0  0  0
    2.0871   -1.0003    0.5420 C   0  0  0  0  0  0
    3.4729   -1.0356    0.4213 C   0  0  0  0  0  0
    4.1827    0.0517   -0.0994 C   0  0  0  0  0  0
    5.6641   -0.0418   -0.1535 C   0  0  0  0  0  0
    6.3801   -0.0777   -1.3553 C   0  0  0  0  0  0
    7.7742   -0.0041   -1.3048 C   0  0  0  0  0  0
    8.4610    0.1720   -0.1458 N   0  0  0  0  0  0
    7.7546    0.2394    1.0172 C   0  0  0  0  0  0
    6.3759    0.0199    1.0435 C   0  0  0  0  0  0
    8.4640    0.6849    2.3127 C   0  0  2  0  0  0
    7.6647    1.7661    3.1221 C   0  0  0  0  0  0
    7.5649    3.2116    2.5627 C   0  0  0  0  0  0
    6.9159    3.4163    1.1683 C   0  0  0  0  0  0
    5.3910    3.1524    1.0150 C   0  0  1  0  0  0
    4.5286    4.1926    1.7531 C   0  0  0  0  0  0
    5.0639    3.1295   -0.4169 N   0  0  0  0  0  0
    4.1318    2.4298   -1.0984 C   0  0  0  0  0  0
    3.8271    2.7615   -2.2425 O   0  0  0  0  0  0
    3.4690    1.2118   -0.4897 C   0  0  0  0  0  0
    2.0717    1.2281   -0.3739 C   0  0  0  0  0  0
    9.9148    1.0151    2.2305 N   0  0  0  0  0  0
   10.4121    1.9826    1.2059 C   0  0  0  0  0  0
   11.6689    2.7601    1.6788 C   0  0  0  0  0  0
   12.6727    1.7633    2.2332 C   0  0  0  0  0  0
   12.1878    0.7109    2.9232 C   0  0  0  0  0  0
   10.7827    0.4189    3.1150 C   0  0  0  0  0  0
   10.4321   -0.3021    4.0510 O   0  0  0  0  0  0
   14.1229    2.0819    2.2736 C   0  0  0  0  0  0
   15.0747    1.1132    1.9088 C   0  0  0  0  0  0
   14.6873   -0.1197    1.5039 F   0  0  0  0  0  0
   16.4375    1.4072    1.9403 C   0  0  0  0  0  0
   16.8728    2.6703    2.3305 C   0  0  0  0  0  0
   15.9450    3.6448    2.6917 C   0  0  0  0  0  0
   16.5018    5.2078    3.1752 Cl  0  0  0  0  0  0
   14.5772    3.3549    2.6648 C   0  0  0  0  0  0
   13.6966    4.3141    3.0392 F   0  0  0  0  0  0
   -4.2418    0.7311    0.5105 H   0  0  0  0  0  0
   -3.4895    1.7269   -0.7392 H   0  0  0  0  0  0
   -3.3312    2.1737    0.9675 H   0  0  0  0  0  0
   -0.3805   -0.8267    0.5910 H   0  0  0  0  0  0
    1.5734   -1.8605    0.9475 H   0  0  0  0  0  0
    4.0017   -1.9225    0.7402 H   0  0  0  0  0  0
    5.8682   -0.1373   -2.3048 H   0  0  0  0  0  0
    8.3600   -0.0326   -2.2116 H   0  0  0  0  0  0
    5.8295    0.0432    1.9738 H   0  0  0  0  0  0
    8.3673   -0.2228    2.9110 H   0  0  0  0  0  0
    6.6601    1.4149    3.3498 H   0  0  0  0  0  0
    8.1270    1.8342    4.1082 H   0  0  0  0  0  0
    7.0316    3.8244    3.2896 H   0  0  0  0  0  0
    8.5683    3.6367    2.5383 H   0  0  0  0  0  0
    7.1156    4.4413    0.8514 H   0  0  0  0  0  0
    7.4580    2.8087    0.4458 H   0  0  0  0  0  0
    5.1492    2.1961    1.4668 H   0  0  0  0  0  0
    4.7588    4.2082    2.8183 H   0  0  0  0  0  0
    3.4643    3.9725    1.6579 H   0  0  0  0  0  0
    4.7108    5.2014    1.3802 H   0  0  0  0  0  0
    5.5567    3.8272   -0.9548 H   0  0  0  0  0  0
    1.5429    2.1091   -0.7029 H   0  0  0  0  0  0
   10.7475    1.3729    0.3657 H   0  0  0  0  0  0
    9.6238    2.6123    0.7991 H   0  0  0  0  0  0
   12.0932    3.3473    0.8635 H   0  0  0  0  0  0
   11.3607    3.4507    2.4651 H   0  0  0  0  0  0
   12.8825    0.0469    3.4185 H   0  0  0  0  0  0
   17.1591    0.6550    1.6566 H   0  0  0  0  0  0
   17.9300    2.8911    2.3511 H   0  0  0  0  0  0
  1  2  1  0  0  0
  1 43  1  0  0  0
  1 44  1  0  0  0
  1 45  1  0  0  0
  2  3  1  0  0  0
  3  4  2  0  0  0
  3  5  1  0  0  0
  5  6  1  0  0  0
  5 46  1  0  0  0
  6  7  2  0  0  0
  6 26  1  0  0  0
  7  8  1  0  0  0
  7 47  1  0  0  0
  8  9  2  0  0  0
  8 48  1  0  0  0
  9 10  1  0  0  0
  9 25  1  0  0  0
 10 11  2  0  0  0
 10 15  1  0  0  0
 11 12  1  0  0  0
 11 49  1  0  0  0
 12 13  2  0  0  0
 12 50  1  0  0  0
 13 14  1  0  0  0
 14 15  2  0  0  0
 14 16  1  0  0  0
 15 51  1  0  0  0
 16 17  1  0  0  0
 16 27  1  0  0  0
 16 52  1  0  0  0
 17 18  1  0  0  0
 17 53  1  0  0  0
 17 54  1  0  0  0
 18 19  1  0  0  0
 18 55  1  0  0  0
 18 56  1  0  0  0
 19 20  1  0  0  0
 19 57  1  0  0  0
 19 58  1  0  0  0
 20 21  1  0  0  0
 20 22  1  0  0  0
 20 59  1  0  0  0
 21 60  1  0  0  0
 21 61  1  0  0  0
 21 62  1  0  0  0
 22 23  1  0  0  0
 22 63  1  0  0  0
 23 24  2  0  0  0
 23 25  1  0  0  0
 25 26  2  0  0  0
 26 64  1  0  0  0
 27 28  1  0  0  0
 27 32  1  0  0  0
 28 29  1  0  0  0
 28 65  1  0  0  0
 28 66  1  0  0  0
 29 30  1  0  0  0
 29 67  1  0  0  0
 29 68  1  0  0  0
 30 31  2  0  0  0
 30 34  1  0  0  0
 31 32  1  0  0  0
 31 69  1  0  0  0
 32 33  2  0  0  0
 34 35  2  0  0  0
 34 41  1  0  0  0
 35 36  1  0  0  0
 35 37  1  0  0  0
 37 38  2  0  0  0
 37 70  1  0  0  0
 38 39  1  0  0  0
 38 71  1  0  0  0
 39 40  1  0  0  0
 39 41  2  0  0  0
 41 42  1  0  0  0
M  END
> <chembl_id>
CHEMBL4106796

> <chembl_pref_name>
None

> <i_m_ct_stereo_status>
1

> <s_m_source_file>
sdf/inactives_sanitized.sdf

> <i_m_source_file_index>
172

> <i_lp_mmshare_version>
49012

> <i_f3d_flags>
0

> <s_epik_input>
W0NIM11PQyg9TylbTkhdYyhbY0hdW2NIXTEpW2NIXWMyQyg9TylbTkhdW0NASF0oW0NIM10pW0NIMl1bQ0gyXVtDSDJdW0NAQEhdKGMoW2NIXTMpbltjSF1bY0hdYzNjMTIpTjRbQ0gyXVtDSDJdQyg9W0NIXUM0PU8pYzVjKEYpW2NIXVtjSF1jKENsKWM1Rg==

> <s_epik_cmdline>
J2VwaWtfcHl0aG9uJywgJy1waHQnLCAnMC41JywgJy1waCcsICc3LjUnLCAnLW50JywgJy1tYScsICcyMDAnLCAnLWltYWUnLCAnPGluZmlsZS5tYWU+JywgJy1vbWFlJywgJzxvdXRmaWxlLm1hZT4n

> <r_lp_tautomer_probability>
1

> <r_epik_Ionization_Penalty>
  0.0001

> <r_epik_Ionization_Penalty_Charging>
  0.0000

> <r_epik_Ionization_Penalty_Neutral>
  0.0001

> <r_epik_State_Penalty>
 -0.0000

> <r_epik_Charging_Adjusted_Penalty>
0

> <i_epik_Tot_Q>
0

> <i_epik_Tot_abs_Q>
0

> <s_epik_Chemistry_Notes>
This compound has an ester and may undergo hydrolysis at high or low pH.

> <s_lp_Force_Field>
OPLS3e

> <r_lp_Energy>
96.844543

> <b_lp_Chiralities_Consistent>
1

> <s_lp_Variant>
sdf/inactives_sanitized.sdf:172-1

$$$$
sdf/inactives_sanitized.sdf:173
                    3D
 Schrodinger Suite 2020-1.
 55 59  0  0  1  0            999 V2000
   -5.4772   -2.0092    3.4367 C   0  0  0  0  0  0
   -5.5316   -0.9014    2.5831 C   0  0  0  0  0  0
   -3.1155   -2.3735    3.0255 C   0  0  0  0  0  0
   -4.3053   -2.7279    3.6554 C   0  0  0  0  0  0
   -3.1087   -1.2724    2.1565 C   0  0  0  0  0  0
   -4.3272   -0.5527    1.9528 C   0  0  0  0  0  0
   -4.0333    0.4706    1.0750 N   0  0  0  0  0  0
   -2.0945   -0.6347    1.3645 C   0  0  0  0  0  0
   -2.7157    0.4137    0.6991 C   0  0  0  0  0  0
   -2.0305    1.4221   -0.2079 C   0  0  0  0  0  0
   -0.5056    1.2763    0.0138 C   0  0  0  0  0  0
    0.0109   -0.1953   -0.0108 C   0  0  2  0  0  0
   -0.6032   -0.9411    1.2237 C   0  0  0  0  0  0
   -6.8514   -0.1717    2.4046 C   0  0  0  0  0  0
    1.4847   -0.1702    0.0118 N   0  0  0  0  0  0
    2.3402   -1.2078    0.1041 C   0  0  0  0  0  0
    3.7916   -0.8162    0.1032 C   0  0  0  0  0  0
    2.0131   -2.3914    0.1857 O   0  0  0  0  0  0
    4.4953   -0.6884   -1.1097 C   0  0  0  0  0  0
    5.8447   -0.3344   -1.1006 C   0  0  0  0  0  0
    6.5200   -0.1020    0.1046 C   0  0  0  0  0  0
    5.8175   -0.2291    1.3079 C   0  0  0  0  0  0
    4.4675   -0.5818    1.3161 C   0  0  0  0  0  0
    3.6794   -0.7147    2.8561 Cl  0  0  0  0  0  0
    7.8922    0.2553    0.1146 N   0  0  0  0  0  0
    8.6432    0.8276    1.1117 C   0  0  0  0  0  0
    9.8808    0.9963    0.7250 N   0  0  0  0  0  0
    9.8541    0.5280   -0.5128 C   0  0  0  0  0  0
    8.6986    0.0643   -0.9410 N   0  0  0  0  0  0
   11.0933    0.5006   -1.3795 C   0  0  0  0  0  0
    3.7430   -0.9554   -2.6502 Cl  0  0  0  0  0  0
   -0.3977   -0.8957   -1.3422 C   0  0  0  0  0  0
   -6.3722   -2.3272    3.9521 H   0  0  0  0  0  0
   -2.2142   -2.9405    3.2061 H   0  0  0  0  0  0
   -4.3198   -3.5741    4.3266 H   0  0  0  0  0  0
   -4.6635    1.1783    0.7266 H   0  0  0  0  0  0
   -2.2804    1.2273   -1.2512 H   0  0  0  0  0  0
   -2.3539    2.4416    0.0049 H   0  0  0  0  0  0
   -0.0171    1.8490   -0.7766 H   0  0  0  0  0  0
   -0.2173    1.7573    0.9508 H   0  0  0  0  0  0
   -0.0908   -0.6396    2.1385 H   0  0  0  0  0  0
   -0.4482   -2.0170    1.1367 H   0  0  0  0  0  0
   -6.7505    0.8662    2.7225 H   0  0  0  0  0  0
   -7.6577   -0.6246    2.9831 H   0  0  0  0  0  0
   -7.1457   -0.1792    1.3547 H   0  0  0  0  0  0
    1.8909    0.7534   -0.0165 H   0  0  0  0  0  0
    6.3624   -0.2403   -2.0446 H   0  0  0  0  0  0
    6.3130   -0.0642    2.2533 H   0  0  0  0  0  0
    8.2155    1.0882    2.0682 H   0  0  0  0  0  0
   10.9969   -0.1316   -2.2632 H   0  0  0  0  0  0
   11.9318    0.0892   -0.8163 H   0  0  0  0  0  0
   11.4232    1.5015   -1.6596 H   0  0  0  0  0  0
   -1.4787   -0.9775   -1.4526 H   0  0  0  0  0  0
   -0.0147   -1.9143   -1.4095 H   0  0  0  0  0  0
   -0.0257   -0.3514   -2.2113 H   0  0  0  0  0  0
  1  2  2  0  0  0
  1  4  1  0  0  0
  1 33  1  0  0  0
  2  6  1  0  0  0
  2 14  1  0  0  0
  3  5  1  0  0  0
  3  4  2  0  0  0
  3 34  1  0  0  0
  4 35  1  0  0  0
  5  6  2  0  0  0
  5  8  1  0  0  0
  6  7  1  0  0  0
  7  9  1  0  0  0
  7 36  1  0  0  0
  8  9  2  0  0  0
  8 13  1  0  0  0
  9 10  1  0  0  0
 10 11  1  0  0  0
 10 37  1  0  0  0
 10 38  1  0  0  0
 11 12  1  0  0  0
 11 39  1  0  0  0
 11 40  1  0  0  0
 12 13  1  0  0  0
 12 15  1  0  0  0
 12 32  1  0  0  0
 13 41  1  0  0  0
 13 42  1  0  0  0
 14 43  1  0  0  0
 14 44  1  0  0  0
 14 45  1  0  0  0
 15 16  1  0  0  0
 15 46  1  0  0  0
 16 17  1  0  0  0
 16 18  2  0  0  0
 17 19  2  0  0  0
 17 23  1  0  0  0
 19 20  1  0  0  0
 19 31  1  0  0  0
 20 21  2  0  0  0
 20 47  1  0  0  0
 21 22  1  0  0  0
 21 25  1  0  0  0
 22 23  2  0  0  0
 22 48  1  0  0  0
 23 24  1  0  0  0
 25 26  1  0  0  0
 25 29  1  0  0  0
 26 27  2  0  0  0
 26 49  1  0  0  0
 27 28  1  0  0  0
 28 29  2  0  0  0
 28 30  1  0  0  0
 30 50  1  0  0  0
 30 51  1  0  0  0
 30 52  1  0  0  0
 32 53  1  0  0  0
 32 54  1  0  0  0
 32 55  1  0  0  0
M  END
> <chembl_id>
CHEMBL3628833

> <chembl_pref_name>
None

> <i_m_ct_stereo_status>
1

> <s_m_source_file>
sdf/inactives_sanitized.sdf

> <i_m_source_file_index>
173

> <i_lp_mmshare_version>
49012

> <i_f3d_flags>
0

> <s_epik_input>
W2NIXTFbY0hdW2NIXWMoW0NIM10pYyhjMTIpW25IXWMzYzJbQ0gyXVtDQEBdKFtDSDNdKShbQ0gyXVtDSDJdMylbTkhdQyg9TyljNGMoQ2wpW2NIXWMoW2NIXWM0Q2wpLW41W2NIXW5jKG41KVtDSDNd

> <s_epik_cmdline>
J2VwaWtfcHl0aG9uJywgJy1waHQnLCAnMC41JywgJy1waCcsICc3LjUnLCAnLW50JywgJy1tYScsICcyMDAnLCAnLWltYWUnLCAnPGluZmlsZS5tYWU+JywgJy1vbWFlJywgJzxvdXRmaWxlLm1hZT4n

> <r_lp_tautomer_probability>
1

> <r_epik_Ionization_Penalty>
  0.0000

> <r_epik_Ionization_Penalty_Charging>
  0.0000

> <r_epik_Ionization_Penalty_Neutral>
  0.0000

> <r_epik_State_Penalty>
 -0.0000

> <r_epik_Charging_Adjusted_Penalty>
0

> <i_epik_Tot_Q>
0

> <i_epik_Tot_abs_Q>
0

> <s_lp_Force_Field>
OPLS3e

> <r_lp_Energy>
24.469211

> <b_lp_Chiralities_Consistent>
1

> <s_lp_Variant>
sdf/inactives_sanitized.sdf:173-1

$$$$
sdf/inactives_sanitized.sdf:174
                    3D
 Schrodinger Suite 2020-1.
 70 73  0  0  1  0            999 V2000
   -2.1530    1.1838   -0.3915 C   0  0  0  0  0  0
   -0.7650    1.2499   -0.2937 C   0  0  0  0  0  0
   -0.1585    2.4363    0.1242 C   0  0  0  0  0  0
   -0.9378    3.5466    0.4356 C   0  0  0  0  0  0
   -2.9304    2.2959   -0.0806 C   0  0  0  0  0  0
   -2.3390    3.5004    0.3376 C   0  0  0  0  0  0
   -0.0167    0.1122   -0.6278 N   0  0  0  0  0  0
    1.4228   -0.0105   -0.7677 C   0  0  1  0  0  0
    1.7682   -1.5076   -0.9505 C   0  0  0  0  0  0
    2.9903   -1.8755   -0.5236 N   0  0  0  0  0  0
    0.9990   -2.2694   -1.5448 O   0  0  0  0  0  0
    2.0070    0.7829   -1.9191 C   0  0  0  0  0  0
    3.2141    1.4656   -1.7365 C   0  0  0  0  0  0
    3.8093    2.1388   -2.7987 C   0  0  0  0  0  0
    3.2129    2.1179   -4.0609 C   0  0  0  0  0  0
    1.9916    1.4663   -4.2433 C   0  0  0  0  0  0
    1.3900    0.8041   -3.1775 C   0  0  0  0  0  0
    3.6270   -3.1499   -0.8688 C   0  0  0  0  0  0
    3.9355   -3.3423   -2.3656 C   0  0  0  0  0  0
    3.7454   -4.5693   -3.0396 C   0  0  0  0  0  0
    3.9337   -4.6260   -4.4261 C   0  0  0  0  0  0
    4.3190   -3.4984   -5.1456 C   0  0  0  0  0  0
    4.5478   -2.2902   -4.4913 C   0  0  0  0  0  0
    4.3489   -2.2222   -3.1053 C   0  0  0  0  0  0
    4.9111   -1.1911   -5.2915 N   0  0  0  0  0  0
    5.5371   -0.0533   -4.9200 C   0  0  0  0  0  0
    5.6970    1.0151   -6.0107 C   0  0  0  0  0  0
    6.0076    0.1581   -3.8018 O   0  0  0  0  0  0
    3.8992    2.7906   -5.2438 C   0  0  0  0  0  0
    4.4105    1.8166   -6.3350 C   0  0  0  0  0  0
    3.2560   -6.0969   -2.2079 S   0  0  0  0  0  0
    1.3936   -5.8826   -1.9359 C   0  0  0  0  0  0
    3.4463   -7.2021   -3.1550 O   0  0  0  0  0  0
    3.9328   -6.1423   -0.9066 O   0  0  0  0  0  0
    0.8185   -7.1197   -1.2366 C   0  0  0  0  0  0
   -3.1605    4.6754    0.6618 C   0  0  0  0  0  0
   -4.4247    4.5047    1.0297 N   0  3  0  0  0  0
   -2.6248    5.8876    0.5801 N   0  0  0  0  0  0
   -2.6372    0.2730   -0.7147 H   0  0  0  0  0  0
    0.9156    2.5109    0.2092 H   0  0  0  0  0  0
   -0.4303    4.4444    0.7590 H   0  0  0  0  0  0
   -4.0030    2.2061   -0.1790 H   0  0  0  0  0  0
   -0.5461   -0.6918   -0.9348 H   0  0  0  0  0  0
    1.8501    0.3385    0.1752 H   0  0  0  0  0  0
    3.5742   -1.1904   -0.0661 H   0  0  0  0  0  0
    3.7061    1.4593   -0.7748 H   0  0  0  0  0  0
    4.7522    2.6438   -2.6465 H   0  0  0  0  0  0
    1.5184    1.4533   -5.2143 H   0  0  0  0  0  0
    0.4605    0.2779   -3.3403 H   0  0  0  0  0  0
    4.5732   -3.2019   -0.3298 H   0  0  0  0  0  0
    3.0045   -3.9407   -0.4585 H   0  0  0  0  0  0
    3.7788   -5.5481   -4.9663 H   0  0  0  0  0  0
    4.4470   -3.5761   -6.2159 H   0  0  0  0  0  0
    4.4730   -1.2825   -2.5897 H   0  0  0  0  0  0
    4.7323   -1.3079   -6.2779 H   0  0  0  0  0  0
    6.5019    1.7001   -5.7393 H   0  0  0  0  0  0
    6.0383    0.5141   -6.9182 H   0  0  0  0  0  0
    3.1752    3.4749   -5.6889 H   0  0  0  0  0  0
    4.7161    3.4268   -4.8992 H   0  0  0  0  0  0
    3.6114    1.1406   -6.6440 H   0  0  0  0  0  0
    4.6247    2.4132   -7.2228 H   0  0  0  0  0  0
    1.2293   -4.9845   -1.3435 H   0  0  0  0  0  0
    0.9337   -5.7269   -2.9118 H   0  0  0  0  0  0
   -0.2558   -7.0161   -1.0824 H   0  0  0  0  0  0
    1.2815   -7.2711   -0.2610 H   0  0  0  0  0  0
    0.9847   -8.0204   -1.8286 H   0  0  0  0  0  0
   -4.9966    5.3058    1.2533 H   0  0  0  0  0  0
   -3.1817    6.6998    0.8013 H   0  0  0  0  0  0
   -1.6624    5.9919    0.2937 H   0  0  0  0  0  0
   -4.8076    3.5724    1.0865 H   0  0  0  0  0  0
  1  5  2  0  0  0
  1  2  1  0  0  0
  1 39  1  0  0  0
  2  3  2  0  0  0
  2  7  1  0  0  0
  3  4  1  0  0  0
  3 40  1  0  0  0
  4  6  2  0  0  0
  4 41  1  0  0  0
  5  6  1  0  0  0
  5 42  1  0  0  0
  6 36  1  0  0  0
  7  8  1  0  0  0
  7 43  1  0  0  0
  8  9  1  0  0  0
  8 12  1  0  0  0
  8 44  1  0  0  0
  9 10  1  0  0  0
  9 11  2  0  0  0
 10 18  1  0  0  0
 10 45  1  0  0  0
 12 13  2  0  0  0
 12 17  1  0  0  0
 13 14  1  0  0  0
 13 46  1  0  0  0
 14 15  2  0  0  0
 14 47  1  0  0  0
 15 16  1  0  0  0
 15 29  1  0  0  0
 16 17  2  0  0  0
 16 48  1  0  0  0
 17 49  1  0  0  0
 18 19  1  0  0  0
 18 50  1  0  0  0
 18 51  1  0  0  0
 19 20  2  0  0  0
 19 24  1  0  0  0
 20 21  1  0  0  0
 20 31  1  0  0  0
 21 22  2  0  0  0
 21 52  1  0  0  0
 22 23  1  0  0  0
 22 53  1  0  0  0
 23 24  2  0  0  0
 23 25  1  0  0  0
 24 54  1  0  0  0
 25 26  1  0  0  0
 25 55  1  0  0  0
 26 27  1  0  0  0
 26 28  2  0  0  0
 27 30  1  0  0  0
 27 56  1  0  0  0
 27 57  1  0  0  0
 29 30  1  0  0  0
 29 58  1  0  0  0
 29 59  1  0  0  0
 30 60  1  0  0  0
 30 61  1  0  0  0
 31 32  1  0  0  0
 31 33  2  0  0  0
 31 34  2  0  0  0
 32 35  1  0  0  0
 32 62  1  0  0  0
 32 63  1  0  0  0
 35 64  1  0  0  0
 35 65  1  0  0  0
 35 66  1  0  0  0
 36 37  2  0  0  0
 36 38  1  0  0  0
 37 67  1  0  0  0
 37 70  1  0  0  0
 38 68  1  0  0  0
 38 69  1  0  0  0
M  CHG  1  37   1
M  END
> <chembl_id>
CHEMBL3594313

> <chembl_pref_name>
None

> <i_m_ct_stereo_status>
1

> <s_m_source_file>
sdf/inactives_sanitized.sdf

> <i_m_source_file_index>
174

> <i_lp_mmshare_version>
49012

> <i_f3d_flags>
0

> <s_epik_input>
W0hdXE49QyhbTkgyXSlcYyhbY0hdW2NIXTEpW2NIXVtjSF1jMVtOSF1bQ0BIXTJDKD1PKVtOSF1bQ0gyXWMoW2NIXTMpYyhTKD1PKSg9TylbQ0gyXVtDSDNdKVtjSF1bY0hdYzNbTkhdQyg9TylbQ0gyXVtDSDJdW0NIMl1jKFtjSF1bY0hdYzI0KVtjSF1bY0hdNA==

> <s_epik_cmdline>
J2VwaWtfcHl0aG9uJywgJy1waHQnLCAnMC41JywgJy1waCcsICc3LjUnLCAnLW50JywgJy1tYScsICcyMDAnLCAnLWltYWUnLCAnPGluZmlsZS5tYWU+JywgJy1vbWFlJywgJzxvdXRmaWxlLm1hZT4n

> <r_lp_tautomer_probability>
1

> <r_epik_Ionization_Penalty>
  0.0010

> <r_epik_Ionization_Penalty_Charging>
  0.0010

> <r_epik_Ionization_Penalty_Neutral>
  0.0000

> <r_epik_State_Penalty>
 -0.0000

> <r_epik_Charging_Adjusted_Penalty>
0.000984797499885888

> <i_epik_Tot_Q>
1

> <i_epik_Tot_abs_Q>
1

> <s_epik_Chemistry_Notes>
This compound has an imine and may undergo hydrolysis.

> <s_lp_Force_Field>
OPLS3e

> <r_lp_Energy>
38.657149

> <b_lp_Chiralities_Consistent>
1

> <s_lp_Variant>
sdf/inactives_sanitized.sdf:174-1

$$$$
sdf/inactives_sanitized.sdf:175
                    3D
 Schrodinger Suite 2020-1.
 47 50  0  0  1  0            999 V2000
   -0.4155    2.0841    1.1925 N   0  0  0  0  0  0
   -1.3709    3.1944   -0.4439 C   0  0  0  0  0  0
   -1.9096    4.3034   -1.1071 C   0  0  0  0  0  0
   -0.8567    4.5703    1.5332 C   0  0  0  0  0  0
   -1.3977    5.6687    0.8511 C   0  0  0  0  0  0
   -1.9178    5.5400   -0.4516 C   0  0  0  0  0  0
   -0.8543    3.3455    0.8643 C   0  0  0  0  0  0
   -0.6701    1.2703    0.1130 C   0  0  0  0  0  0
   -1.2472    1.9012   -0.8803 N   0  0  0  0  0  0
   -0.2550   -0.1884    0.0705 C   0  0  0  0  0  0
    1.2640   -0.3969   -0.1223 C   0  0  0  0  0  0
    1.8084    0.2901   -1.2978 N   0  0  0  0  0  0
    2.3955    1.5047   -1.2973 C   0  0  0  0  0  0
    2.7990    2.0670   -2.6451 C   0  0  0  0  0  0
    2.5966    2.1456   -0.2629 O   0  0  0  0  0  0
    2.3615    1.4860   -3.8465 C   0  0  0  0  0  0
    2.7289    2.0314   -5.0734 C   0  0  0  0  0  0
    3.5388    3.1697   -5.1186 C   0  0  0  0  0  0
    3.9808    3.7559   -3.9292 C   0  0  0  0  0  0
    3.6120    3.2077   -2.7044 C   0  0  0  0  0  0
    3.9060    3.7284   -6.3618 N   0  0  0  0  0  0
    4.0534    3.1045   -7.5815 C   0  0  0  0  0  0
    4.4065    3.9408   -8.5253 N   0  0  0  0  0  0
    4.5042    5.1954   -7.9324 N   0  0  0  0  0  0
    4.2071    5.0380   -6.6667 C   0  0  0  0  0  0
   -2.5023    6.7411   -1.1844 C   0  0  0  0  0  0
   -1.4059    7.0166    1.5612 C   0  0  0  0  0  0
    0.0347    1.7667    2.0384 H   0  0  0  0  0  0
   -2.3067    4.2030   -2.1068 H   0  0  0  0  0  0
   -0.4552    4.6672    2.5314 H   0  0  0  0  0  0
   -0.5673   -0.6899    0.9872 H   0  0  0  0  0  0
   -0.7851   -0.7102   -0.7279 H   0  0  0  0  0  0
    1.7939   -0.0817    0.7792 H   0  0  0  0  0  0
    1.4716   -1.4614   -0.2356 H   0  0  0  0  0  0
    1.7337   -0.2037   -2.1751 H   0  0  0  0  0  0
    1.7239    0.6138   -3.8491 H   0  0  0  0  0  0
    2.3682    1.5688   -5.9807 H   0  0  0  0  0  0
    4.6125    4.6323   -3.9410 H   0  0  0  0  0  0
    3.9673    3.6833   -1.8008 H   0  0  0  0  0  0
    3.8934    2.0414   -7.6854 H   0  0  0  0  0  0
    4.1762    5.8069   -5.9088 H   0  0  0  0  0  0
   -3.3300    7.1665   -0.6163 H   0  0  0  0  0  0
   -2.8742    6.4826   -2.1768 H   0  0  0  0  0  0
   -1.7473    7.5194   -1.2989 H   0  0  0  0  0  0
   -0.8401    7.7508    0.9869 H   0  0  0  0  0  0
   -0.9716    6.9638    2.5605 H   0  0  0  0  0  0
   -2.4261    7.3891    1.6573 H   0  0  0  0  0  0
  1  7  1  0  0  0
  1  8  1  0  0  0
  1 28  1  0  0  0
  2  3  2  0  0  0
  2  7  1  0  0  0
  2  9  1  0  0  0
  3  6  1  0  0  0
  3 29  1  0  0  0
  4  7  2  0  0  0
  4  5  1  0  0  0
  4 30  1  0  0  0
  5  6  2  0  0  0
  5 27  1  0  0  0
  6 26  1  0  0  0
  8  9  2  0  0  0
  8 10  1  0  0  0
 10 11  1  0  0  0
 10 31  1  0  0  0
 10 32  1  0  0  0
 11 12  1  0  0  0
 11 33  1  0  0  0
 11 34  1  0  0  0
 12 13  1  0  0  0
 12 35  1  0  0  0
 13 14  1  0  0  0
 13 15  2  0  0  0
 14 16  2  0  0  0
 14 20  1  0  0  0
 16 17  1  0  0  0
 16 36  1  0  0  0
 17 18  2  0  0  0
 17 37  1  0  0  0
 18 19  1  0  0  0
 18 21  1  0  0  0
 19 20  2  0  0  0
 19 38  1  0  0  0
 20 39  1  0  0  0
 21 22  1  0  0  0
 21 25  1  0  0  0
 22 23  2  0  0  0
 22 40  1  0  0  0
 23 24  1  0  0  0
 24 25  2  0  0  0
 25 41  1  0  0  0
 26 42  1  0  0  0
 26 43  1  0  0  0
 26 44  1  0  0  0
 27 45  1  0  0  0
 27 46  1  0  0  0
 27 47  1  0  0  0
M  END
> <chembl_id>
CHEMBL3423033

> <chembl_pref_name>
None

> <s_m_source_file>
sdf/inactives_sanitized.sdf

> <i_m_source_file_index>
175

> <i_lp_mmshare_version>
49012

> <i_m_ct_stereo_status>
1

> <i_f3d_flags>
0

> <s_epik_input>
W2NIXTFjKFtDSDNdKWMoW0NIM10pW2NIXWMoYzEyKVtuSF1jKG4yKVtDSDJdW0NIMl1bTkhdQyg9TyljM1tjSF1bY0hdYyhbY0hdW2NIXTMpLW40W2NIXW5uW2NIXTQ=

> <s_epik_cmdline>
J2VwaWtfcHl0aG9uJywgJy1waHQnLCAnMC41JywgJy1waCcsICc3LjUnLCAnLW50JywgJy1tYScsICcyMDAnLCAnLWltYWUnLCAnPGluZmlsZS5tYWU+JywgJy1vbWFlJywgJzxvdXRmaWxlLm1hZT4n

> <r_lp_tautomer_probability>
1

> <r_epik_Ionization_Penalty>
  0.0235

> <r_epik_Ionization_Penalty_Charging>
  0.0000

> <r_epik_Ionization_Penalty_Neutral>
  0.0235

> <r_epik_State_Penalty>
  0.0190

> <r_epik_Charging_Adjusted_Penalty>
0.0189995681741242

> <i_epik_Tot_Q>
0

> <i_epik_Tot_abs_Q>
0

> <s_lp_Force_Field>
OPLS3e

> <r_lp_Energy>
19.04638

> <b_lp_Chiralities_Consistent>
1

> <s_lp_Variant>
sdf/inactives_sanitized.sdf:175-1

$$$$
sdf/inactives_sanitized.sdf:176
                    3D
 Schrodinger Suite 2020-1.
 69 73  0  0  1  0            999 V2000
   -1.9885   -1.2762   -0.2105 C   0  0  0  0  0  0
   -0.5737   -1.1496   -0.1705 O   0  0  0  0  0  0
    0.0160    0.0704   -0.0878 C   0  0  0  0  0  0
   -0.6157    1.1303   -0.0454 O   0  0  0  0  0  0
    1.5151    0.0030   -0.0527 C   0  0  0  0  0  0
    2.2093   -1.2153   -0.0959 C   0  0  0  0  0  0
    3.6013   -1.2417   -0.0656 C   0  0  0  0  0  0
    4.3313   -0.0536    0.0004 C   0  0  0  0  0  0
    5.7294   -0.1748    0.0466 N   0  0  0  0  0  0
    6.6265    0.1469   -0.9136 C   0  0  0  0  0  0
    7.8188   -0.0899   -0.7232 O   0  0  0  0  0  0
    6.2070    0.8063   -2.2545 C   0  0  2  0  0  0
    6.4126   -0.1653   -3.4346 C   0  0  0  0  0  0
    6.9639    2.1503   -2.4701 C   0  0  0  0  0  0
    6.3322    3.0996   -3.5231 C   0  0  0  0  0  0
    6.4767    4.6124   -3.2014 C   0  0  0  0  0  0
    5.3615    5.2289   -2.2956 C   0  0  2  0  0  0
    5.5059    6.6937   -2.0997 N   0  0  0  0  0  0
    6.8626    7.2746   -1.8683 C   0  0  0  0  0  0
    6.8297    8.6036   -1.0659 C   0  0  0  0  0  0
    5.7422    9.4980   -1.6343 C   0  0  0  0  0  0
    4.6069    8.9081   -2.0588 C   0  0  0  0  0  0
    4.3794    7.4796   -2.1042 C   0  0  0  0  0  0
    3.2289    7.0392   -2.1381 O   0  0  0  0  0  0
    5.7942   10.9700   -1.4539 C   0  0  0  0  0  0
    6.1170   11.5372   -0.2090 C   0  0  0  0  0  0
    6.3686   10.7558    0.8675 F   0  0  0  0  0  0
    6.1673   12.9222   -0.0521 C   0  0  0  0  0  0
    5.8980   13.7608   -1.1301 C   0  0  0  0  0  0
    5.5781   13.2162   -2.3721 C   0  0  0  0  0  0
    5.2511   14.2699   -3.7023 Cl  0  0  0  0  0  0
    5.5270   11.8285   -2.5356 C   0  0  0  0  0  0
    5.2304   11.3169   -3.7553 F   0  0  0  0  0  0
    5.1836    4.4530   -0.9868 C   0  0  0  0  0  0
    4.3352    3.3445   -0.9594 C   0  0  0  0  0  0
    4.3776    2.4801    0.1375 C   0  0  0  0  0  0
    5.1730    2.8305    1.2354 C   0  0  0  0  0  0
    5.9200    4.0091    1.1768 C   0  0  0  0  0  0
    5.9505    4.8090    0.0807 N   0  0  0  0  0  0
    3.6570    1.1843    0.0711 C   0  0  0  0  0  0
    2.2575    1.1902    0.0291 C   0  0  0  0  0  0
   -2.2647   -2.3294   -0.2604 H   0  0  0  0  0  0
   -2.4021   -0.7749   -1.0869 H   0  0  0  0  0  0
   -2.4460   -0.8477    0.6825 H   0  0  0  0  0  0
    1.6853   -2.1587   -0.1544 H   0  0  0  0  0  0
    4.1098   -2.1948   -0.1006 H   0  0  0  0  0  0
    6.0900   -0.6639    0.8527 H   0  0  0  0  0  0
    5.1417    1.0230   -2.2209 H   0  0  0  0  0  0
    5.8510   -1.0899   -3.2914 H   0  0  0  0  0  0
    7.4623   -0.4354   -3.5602 H   0  0  0  0  0  0
    6.0709    0.2757   -4.3716 H   0  0  0  0  0  0
    7.0376    2.6746   -1.5178 H   0  0  0  0  0  0
    8.0037    1.9558   -2.7396 H   0  0  0  0  0  0
    6.8024    2.8944   -4.4859 H   0  0  0  0  0  0
    5.2773    2.8681   -3.6749 H   0  0  0  0  0  0
    7.4679    4.7894   -2.7831 H   0  0  0  0  0  0
    6.4629    5.1532   -4.1487 H   0  0  0  0  0  0
    4.4385    5.0716   -2.8578 H   0  0  0  0  0  0
    7.5635    6.5416   -1.4691 H   0  0  0  0  0  0
    7.2443    7.5200   -2.8603 H   0  0  0  0  0  0
    6.5930    8.3592   -0.0294 H   0  0  0  0  0  0
    7.8048    9.0919   -1.0797 H   0  0  0  0  0  0
    3.7776    9.5321   -2.3624 H   0  0  0  0  0  0
    6.4122   13.3475    0.9101 H   0  0  0  0  0  0
    5.9382   14.8325   -0.9997 H   0  0  0  0  0  0
    3.7498    3.0860   -1.8302 H   0  0  0  0  0  0
    5.2264    2.1936    2.1064 H   0  0  0  0  0  0
    6.5437    4.3075    2.0066 H   0  0  0  0  0  0
    1.7481    2.1439    0.0659 H   0  0  0  0  0  0
  1  2  1  0  0  0
  1 42  1  0  0  0
  1 43  1  0  0  0
  1 44  1  0  0  0
  2  3  1  0  0  0
  3  4  2  0  0  0
  3  5  1  0  0  0
  5  6  2  0  0  0
  5 41  1  0  0  0
  6  7  1  0  0  0
  6 45  1  0  0  0
  7  8  2  0  0  0
  7 46  1  0  0  0
  8  9  1  0  0  0
  8 40  1  0  0  0
  9 10  1  0  0  0
  9 47  1  0  0  0
 10 11  2  0  0  0
 10 12  1  0  0  0
 12 13  1  0  0  0
 12 14  1  0  0  0
 12 48  1  0  0  0
 13 49  1  0  0  0
 13 50  1  0  0  0
 13 51  1  0  0  0
 14 15  1  0  0  0
 14 52  1  0  0  0
 14 53  1  0  0  0
 15 16  1  0  0  0
 15 54  1  0  0  0
 15 55  1  0  0  0
 16 17  1  0  0  0
 16 56  1  0  0  0
 16 57  1  0  0  0
 17 18  1  0  0  0
 17 34  1  0  0  0
 17 58  1  0  0  0
 18 19  1  0  0  0
 18 23  1  0  0  0
 19 20  1  0  0  0
 19 59  1  0  0  0
 19 60  1  0  0  0
 20 21  1  0  0  0
 20 61  1  0  0  0
 20 62  1  0  0  0
 21 22  2  0  0  0
 21 25  1  0  0  0
 22 23  1  0  0  0
 22 63  1  0  0  0
 23 24  2  0  0  0
 25 26  2  0  0  0
 25 32  1  0  0  0
 26 27  1  0  0  0
 26 28  1  0  0  0
 28 29  2  0  0  0
 28 64  1  0  0  0
 29 30  1  0  0  0
 29 65  1  0  0  0
 30 31  1  0  0  0
 30 32  2  0  0  0
 32 33  1  0  0  0
 34 35  1  0  0  0
 34 39  2  0  0  0
 35 36  2  0  0  0
 35 66  1  0  0  0
 36 37  1  0  0  0
 36 40  1  0  0  0
 37 38  2  0  0  0
 37 67  1  0  0  0
 38 39  1  0  0  0
 38 68  1  0  0  0
 40 41  2  0  0  0
 41 69  1  0  0  0
M  END
> <chembl_id>
CHEMBL4114194

> <chembl_pref_name>
None

> <i_m_ct_stereo_status>
1

> <s_m_source_file>
sdf/inactives_sanitized.sdf

> <i_m_source_file_index>
176

> <i_lp_mmshare_version>
49012

> <i_f3d_flags>
0

> <s_epik_input>
W0NIM11PQyg9TyljKFtjSF1bY0hdMSlbY0hdYyhjMTIpYzNbY0hdYyhuW2NIXVtjSF0zKVtDQEhdKFtDSDJdW0NIMl1bQ0gyXVtDQEBIXShbQ0gzXSlDKD1PKVtOSF0yKU40W0NIMl1bQ0gyXUMoPVtDSF1DND1PKWM1YyhGKVtjSF1bY0hdYyhDbCljNUY=

> <s_epik_cmdline>
J2VwaWtfcHl0aG9uJywgJy1waHQnLCAnMC41JywgJy1waCcsICc3LjUnLCAnLW50JywgJy1tYScsICcyMDAnLCAnLWltYWUnLCAnPGluZmlsZS5tYWU+JywgJy1vbWFlJywgJzxvdXRmaWxlLm1hZT4n

> <r_lp_tautomer_probability>
1

> <r_epik_Ionization_Penalty>
  0.0001

> <r_epik_Ionization_Penalty_Charging>
  0.0000

> <r_epik_Ionization_Penalty_Neutral>
  0.0001

> <r_epik_State_Penalty>
 -0.0000

> <r_epik_Charging_Adjusted_Penalty>
0

> <i_epik_Tot_Q>
0

> <i_epik_Tot_abs_Q>
0

> <s_epik_Chemistry_Notes>
This compound has an ester and may undergo hydrolysis at high or low pH.

> <s_lp_Force_Field>
OPLS3e

> <r_lp_Energy>
91.203232

> <b_lp_Chiralities_Consistent>
1

> <s_lp_Variant>
sdf/inactives_sanitized.sdf:176-1

$$$$
sdf/inactives_sanitized.sdf:177
                    3D
 Schrodinger Suite 2020-1.
 69 73  0  0  1  0            999 V2000
   -1.8850   -1.2697    0.8664 C   0  0  0  0  0  0
   -0.4913   -1.0009    0.8128 O   0  0  0  0  0  0
    0.0315   -0.2040   -0.1502 C   0  0  0  0  0  0
   -0.6300    0.2497   -1.0890 O   0  0  0  0  0  0
    1.5279   -0.0555   -0.0466 C   0  0  0  0  0  0
    2.2237    0.0840   -1.2576 C   0  0  0  0  0  0
    3.6066    0.2134   -1.2848 C   0  0  0  0  0  0
    4.3245    0.2194   -0.0975 C   0  0  0  0  0  0
    3.6628    0.1207    1.1268 C   0  0  0  0  0  0
    4.4838    0.1205    2.2674 N   0  0  0  0  0  0
    4.6819    1.1243    3.1518 C   0  0  0  0  0  0
    5.5193    0.9817    4.0419 O   0  0  0  0  0  0
    3.8822    2.4527    3.0921 C   0  0  2  0  0  0
    4.7954    3.6321    2.7000 C   0  0  0  0  0  0
    3.1477    2.7111    4.4415 C   0  0  0  0  0  0
    1.9800    3.7308    4.3731 C   0  0  0  0  0  0
    0.7759    3.4018    5.2981 C   0  0  0  0  0  0
   -0.2983    2.4389    4.6965 C   0  0  2  0  0  0
   -1.4829    2.2410    5.5690 N   0  0  0  0  0  0
   -1.3015    2.1273    7.0472 C   0  0  0  0  0  0
   -2.4269    1.3141    7.7431 C   0  0  0  0  0  0
   -3.7734    1.7635    7.2030 C   0  0  0  0  0  0
   -3.8450    2.0797    5.8945 C   0  0  0  0  0  0
   -2.7203    2.1189    4.9850 C   0  0  0  0  0  0
   -2.9067    2.0417    3.7690 O   0  0  0  0  0  0
   -5.0165    1.5768    7.9940 C   0  0  0  0  0  0
   -5.9720    2.6060    8.0664 C   0  0  0  0  0  0
   -5.7701    3.7837    7.4287 F   0  0  0  0  0  0
   -7.1404    2.4416    8.8096 C   0  0  0  0  0  0
   -7.3730    1.2527    9.4948 C   0  0  0  0  0  0
   -6.4369    0.2225    9.4382 C   0  0  0  0  0  0
   -6.7422   -1.2481   10.2934 Cl  0  0  0  0  0  0
   -5.2642    0.3809    8.6926 C   0  0  0  0  0  0
   -4.3784   -0.6428    8.6389 F   0  0  0  0  0  0
    0.3133    1.1280    4.1956 C   0  0  0  0  0  0
    0.8083    1.0631    2.8932 C   0  0  0  0  0  0
    1.5665   -0.0433    2.5021 C   0  0  0  0  0  0
    1.7081   -1.1075    3.4016 C   0  0  0  0  0  0
    1.1141   -1.0076    4.6620 C   0  0  0  0  0  0
    0.4370    0.0950    5.0740 N   0  0  0  0  0  0
    2.2534   -0.0233    1.1775 C   0  0  0  0  0  0
   -2.1033   -1.9168    1.7159 H   0  0  0  0  0  0
   -2.2236   -1.7720   -0.0409 H   0  0  0  0  0  0
   -2.4559   -0.3480    0.9874 H   0  0  0  0  0  0
    1.7005    0.0773   -2.2040 H   0  0  0  0  0  0
    4.1226    0.3044   -2.2292 H   0  0  0  0  0  0
    5.4007    0.3146   -0.1349 H   0  0  0  0  0  0
    5.0835   -0.6861    2.3623 H   0  0  0  0  0  0
    3.1319    2.3731    2.3087 H   0  0  0  0  0  0
    5.2803    3.4577    1.7381 H   0  0  0  0  0  0
    5.5814    3.7996    3.4379 H   0  0  0  0  0  0
    4.2260    4.5577    2.6098 H   0  0  0  0  0  0
    2.7700    1.7656    4.8300 H   0  0  0  0  0  0
    3.8631    3.0333    5.2004 H   0  0  0  0  0  0
    2.3747    4.7122    4.6395 H   0  0  0  0  0  0
    1.6206    3.8444    3.3498 H   0  0  0  0  0  0
    1.1541    3.0279    6.2496 H   0  0  0  0  0  0
    0.2762    4.3426    5.5346 H   0  0  0  0  0  0
   -0.6523    2.9587    3.8035 H   0  0  0  0  0  0
   -0.2978    1.7971    7.3142 H   0  0  0  0  0  0
   -1.3722    3.1476    7.4263 H   0  0  0  0  0  0
   -2.2729    0.2622    7.4983 H   0  0  0  0  0  0
   -2.3694    1.4165    8.8272 H   0  0  0  0  0  0
   -4.8126    2.2927    5.4617 H   0  0  0  0  0  0
   -7.8662    3.2400    8.8585 H   0  0  0  0  0  0
   -8.2800    1.1331   10.0694 H   0  0  0  0  0  0
    0.6982    1.9062    2.2262 H   0  0  0  0  0  0
    2.2787   -1.9851    3.1347 H   0  0  0  0  0  0
    1.2063   -1.8106    5.3783 H   0  0  0  0  0  0
  1  2  1  0  0  0
  1 42  1  0  0  0
  1 43  1  0  0  0
  1 44  1  0  0  0
  2  3  1  0  0  0
  3  4  2  0  0  0
  3  5  1  0  0  0
  5  6  2  0  0  0
  5 41  1  0  0  0
  6  7  1  0  0  0
  6 45  1  0  0  0
  7  8  2  0  0  0
  7 46  1  0  0  0
  8  9  1  0  0  0
  8 47  1  0  0  0
  9 10  1  0  0  0
  9 41  2  0  0  0
 10 11  1  0  0  0
 10 48  1  0  0  0
 11 12  2  0  0  0
 11 13  1  0  0  0
 13 14  1  0  0  0
 13 15  1  0  0  0
 13 49  1  0  0  0
 14 50  1  0  0  0
 14 51  1  0  0  0
 14 52  1  0  0  0
 15 16  1  0  0  0
 15 53  1  0  0  0
 15 54  1  0  0  0
 16 17  1  0  0  0
 16 55  1  0  0  0
 16 56  1  0  0  0
 17 18  1  0  0  0
 17 57  1  0  0  0
 17 58  1  0  0  0
 18 19  1  0  0  0
 18 35  1  0  0  0
 18 59  1  0  0  0
 19 20  1  0  0  0
 19 24  1  0  0  0
 20 21  1  0  0  0
 20 60  1  0  0  0
 20 61  1  0  0  0
 21 22  1  0  0  0
 21 62  1  0  0  0
 21 63  1  0  0  0
 22 23  2  0  0  0
 22 26  1  0  0  0
 23 24  1  0  0  0
 23 64  1  0  0  0
 24 25  2  0  0  0
 26 27  2  0  0  0
 26 33  1  0  0  0
 27 28  1  0  0  0
 27 29  1  0  0  0
 29 30  2  0  0  0
 29 65  1  0  0  0
 30 31  1  0  0  0
 30 66  1  0  0  0
 31 32  1  0  0  0
 31 33  2  0  0  0
 33 34  1  0  0  0
 35 36  1  0  0  0
 35 40  2  0  0  0
 36 37  2  0  0  0
 36 67  1  0  0  0
 37 38  1  0  0  0
 37 41  1  0  0  0
 38 39  2  0  0  0
 38 68  1  0  0  0
 39 40  1  0  0  0
 39 69  1  0  0  0
M  END
> <chembl_id>
CHEMBL4106676

> <chembl_pref_name>
None

> <i_m_ct_stereo_status>
1

> <s_m_source_file>
sdf/inactives_sanitized.sdf

> <i_m_source_file_index>
177

> <i_lp_mmshare_version>
49012

> <i_f3d_flags>
0

> <s_epik_input>
W0NIM11PQyg9TyljKFtjSF1bY0hdW2NIXTEpYyhjMTIpYzNbY0hdYyhuW2NIXVtjSF0zKVtDQEhdKFtDSDJdW0NIMl1bQ0gyXVtDQEBIXShbQ0gzXSlDKD1PKVtOSF0yKU40W0NIMl1bQ0gyXUMoPVtDSF1DND1PKWM1YyhGKVtjSF1bY0hdYyhDbCljNUY=

> <s_epik_cmdline>
J2VwaWtfcHl0aG9uJywgJy1waHQnLCAnMC41JywgJy1waCcsICc3LjUnLCAnLW50JywgJy1tYScsICcyMDAnLCAnLWltYWUnLCAnPGluZmlsZS5tYWU+JywgJy1vbWFlJywgJzxvdXRmaWxlLm1hZT4n

> <r_lp_tautomer_probability>
1

> <r_epik_Ionization_Penalty>
  0.0001

> <r_epik_Ionization_Penalty_Charging>
  0.0000

> <r_epik_Ionization_Penalty_Neutral>
  0.0001

> <r_epik_State_Penalty>
 -0.0000

> <r_epik_Charging_Adjusted_Penalty>
0

> <i_epik_Tot_Q>
0

> <i_epik_Tot_abs_Q>
0

> <s_epik_Chemistry_Notes>
This compound has an ester and may undergo hydrolysis at high or low pH.

> <s_lp_Force_Field>
OPLS3e

> <r_lp_Energy>
97.664231

> <b_lp_Chiralities_Consistent>
1

> <s_lp_Variant>
sdf/inactives_sanitized.sdf:177-1

$$$$
sdf/inactives_sanitized.sdf:178
                    3D
 Schrodinger Suite 2020-1.
 73 77  0  0  1  0            999 V2000
   -0.4278    1.7004   -0.3036 C   0  0  0  0  0  0
   -1.9567    1.8687   -0.1045 C   0  0  0  0  0  0
    0.1075    0.2460   -0.2067 C   0  0  1  0  0  0
   -2.7537    2.0591   -1.4166 C   0  0  0  0  0  0
   -4.2998    1.9548   -1.2661 C   0  0  2  0  0  0
   -4.7764    0.5105   -0.9943 C   0  0  0  0  0  0
   -5.3269    0.2325    0.0725 O   0  0  0  0  0  0
   -4.5106   -0.3884   -1.9637 N   0  0  0  0  0  0
   -4.6975   -1.7769   -1.8793 C   0  0  0  0  0  0
   -3.5876   -2.6298   -2.0428 C   0  0  0  0  0  0
   -3.7994   -4.0114   -2.0532 C   0  0  0  0  0  0
   -5.0785   -4.5391   -1.8832 C   0  0  0  0  0  0
   -6.1793   -3.6967   -1.7092 C   0  0  0  0  0  0
   -5.9826   -2.3069   -1.7100 C   0  0  0  0  0  0
   -2.2074   -2.0873   -2.1667 C   0  0  0  0  0  0
   -1.6802   -1.2972   -1.1395 C   0  0  0  0  0  0
   -0.4492   -0.6624   -1.3155 C   0  0  0  0  0  0
    0.2991   -0.8416   -2.4398 N   0  0  0  0  0  0
   -0.1899   -1.6587   -3.4077 C   0  0  0  0  0  0
   -1.4312   -2.2924   -3.3132 C   0  0  0  0  0  0
    1.5727    0.2598   -0.0820 N   0  0  0  0  0  0
    2.3550   -0.8044    0.1981 C   0  0  0  0  0  0
    3.7796   -0.5215    0.2655 C   0  0  0  0  0  0
    1.9072   -1.9376    0.3807 O   0  0  0  0  0  0
   -5.0423    2.5721   -2.4710 C   0  0  0  0  0  0
   -7.4247   -4.3248   -1.5398 N   0  0  0  0  0  0
   -8.6972   -3.7655   -1.4722 C   0  0  0  0  0  0
   -8.9995   -2.5753   -1.5817 O   0  0  0  0  0  0
   -9.5859   -4.7595   -1.2712 O   0  0  0  0  0  0
  -10.9763   -4.4844   -1.1694 C   0  0  0  0  0  0
    4.3093    0.6883    0.1106 N   0  0  0  0  0  0
    5.5967    0.5431    0.2638 C   0  0  0  0  0  0
    5.9770   -0.7466    0.5313 N   0  0  0  0  0  0
    4.7956   -1.4679    0.5117 C   0  0  0  0  0  0
    7.2935   -1.1945    0.7752 C   0  0  0  0  0  0
    7.5632   -1.9627    1.9148 C   0  0  0  0  0  0
    8.8617   -2.3977    2.1761 C   0  0  0  0  0  0
    9.8976   -2.0674    1.3039 C   0  0  0  0  0  0
    9.6388   -1.3001    0.1671 C   0  0  0  0  0  0
    8.3384   -0.8597   -0.1008 C   0  0  0  0  0  0
   10.9361   -0.9027   -0.9027 Cl  0  0  0  0  0  0
    8.0968   -0.1230   -1.2124 F   0  0  0  0  0  0
    4.7621   -2.9747    0.7251 C   0  0  0  0  0  0
   -0.1122    2.1550   -1.2443 H   0  0  0  0  0  0
    0.0644    2.2919    0.4710 H   0  0  0  0  0  0
   -2.3512    1.0335    0.4739 H   0  0  0  0  0  0
   -2.1353    2.7445    0.5214 H   0  0  0  0  0  0
   -0.2520   -0.1480    0.7473 H   0  0  0  0  0  0
   -2.5005    3.0449   -1.8102 H   0  0  0  0  0  0
   -2.4041    1.3577   -2.1759 H   0  0  0  0  0  0
   -4.5822    2.5562   -0.3994 H   0  0  0  0  0  0
   -3.9664   -0.0686   -2.7515 H   0  0  0  0  0  0
   -2.9636   -4.6855   -2.1748 H   0  0  0  0  0  0
   -5.2055   -5.6125   -1.8857 H   0  0  0  0  0  0
   -6.8058   -1.6210   -1.5886 H   0  0  0  0  0  0
   -2.2489   -1.1408   -0.2344 H   0  0  0  0  0  0
    0.4268   -1.7859   -4.2851 H   0  0  0  0  0  0
   -1.7946   -2.9029   -4.1270 H   0  0  0  0  0  0
    2.0035    1.1726   -0.0602 H   0  0  0  0  0  0
   -6.1248    2.5275   -2.3406 H   0  0  0  0  0  0
   -4.8021    2.0588   -3.4035 H   0  0  0  0  0  0
   -4.7792    3.6228   -2.5974 H   0  0  0  0  0  0
   -7.3850   -5.3297   -1.4542 H   0  0  0  0  0  0
  -11.5243   -5.4099   -0.9931 H   0  0  0  0  0  0
  -11.3545   -4.0351   -2.0888 H   0  0  0  0  0  0
  -11.1822   -3.8045   -0.3411 H   0  0  0  0  0  0
    6.3368    1.3287    0.2164 H   0  0  0  0  0  0
    6.7730   -2.2176    2.6065 H   0  0  0  0  0  0
    9.0656   -2.9885    3.0570 H   0  0  0  0  0  0
   10.9018   -2.4068    1.5123 H   0  0  0  0  0  0
    3.9446   -3.4522    0.1863 H   0  0  0  0  0  0
    4.6439   -3.2280    1.7785 H   0  0  0  0  0  0
    5.6696   -3.4656    0.3728 H   0  0  0  0  0  0
  1  2  1  0  0  0
  1  3  1  0  0  0
  1 44  1  0  0  0
  1 45  1  0  0  0
  2  4  1  0  0  0
  2 46  1  0  0  0
  2 47  1  0  0  0
  3 17  1  0  0  0
  3 21  1  0  0  0
  3 48  1  0  0  0
  4  5  1  0  0  0
  4 49  1  0  0  0
  4 50  1  0  0  0
  5  6  1  0  0  0
  5 25  1  0  0  0
  5 51  1  0  0  0
  6  7  2  0  0  0
  6  8  1  0  0  0
  8  9  1  0  0  0
  8 52  1  0  0  0
  9 10  2  0  0  0
  9 14  1  0  0  0
 10 11  1  0  0  0
 10 15  1  0  0  0
 11 12  2  0  0  0
 11 53  1  0  0  0
 12 13  1  0  0  0
 12 54  1  0  0  0
 13 14  2  0  0  0
 13 26  1  0  0  0
 14 55  1  0  0  0
 15 16  1  0  0  0
 15 20  2  0  0  0
 16 17  2  0  0  0
 16 56  1  0  0  0
 17 18  1  0  0  0
 18 19  2  0  0  0
 19 20  1  0  0  0
 19 57  1  0  0  0
 20 58  1  0  0  0
 21 22  1  0  0  0
 21 59  1  0  0  0
 22 23  1  0  0  0
 22 24  2  0  0  0
 23 31  1  0  0  0
 23 34  2  0  0  0
 25 60  1  0  0  0
 25 61  1  0  0  0
 25 62  1  0  0  0
 26 27  1  0  0  0
 26 63  1  0  0  0
 27 28  2  0  0  0
 27 29  1  0  0  0
 29 30  1  0  0  0
 30 64  1  0  0  0
 30 65  1  0  0  0
 30 66  1  0  0  0
 31 32  2  0  0  0
 32 33  1  0  0  0
 32 67  1  0  0  0
 33 34  1  0  0  0
 33 35  1  0  0  0
 34 43  1  0  0  0
 35 36  2  0  0  0
 35 40  1  0  0  0
 36 37  1  0  0  0
 36 68  1  0  0  0
 37 38  2  0  0  0
 37 69  1  0  0  0
 38 39  1  0  0  0
 38 70  1  0  0  0
 39 40  2  0  0  0
 39 41  1  0  0  0
 40 42  1  0  0  0
 43 71  1  0  0  0
 43 72  1  0  0  0
 43 73  1  0  0  0
M  END
> <chembl_id>
CHEMBL4438385

> <chembl_pref_name>
None

> <i_m_ct_stereo_status>
1

> <s_m_source_file>
sdf/inactives_sanitized.sdf

> <i_m_source_file_index>
178

> <i_lp_mmshare_version>
49012

> <i_f3d_flags>
0

> <s_epik_input>
W0NIM11PQyg9TylbTkhdYyhbY0hdMSlbY0hdW2NIXWMoYzEyKWMzW2NIXWMobltjSF1bY0hdMylbQ0BIXShbQ0gyXVtDSDJdW0NIMl1bQ0BASF0oW0NIM10pQyg9TylbTkhdMilbTkhdQyg9TyljNG5bY0hdbihjNFtDSDNdKS1jNVtjSF1bY0hdW2NIXWMoQ2wpYzVG

> <s_epik_cmdline>
J2VwaWtfcHl0aG9uJywgJy1waHQnLCAnMC41JywgJy1waCcsICc3LjUnLCAnLW50JywgJy1tYScsICcyMDAnLCAnLWltYWUnLCAnPGluZmlsZS5tYWU+JywgJy1vbWFlJywgJzxvdXRmaWxlLm1hZT4n

> <r_lp_tautomer_probability>
1

> <r_epik_Ionization_Penalty>
  0.0046

> <r_epik_Ionization_Penalty_Charging>
  0.0010

> <r_epik_Ionization_Penalty_Neutral>
  0.0036

> <r_epik_State_Penalty>
 -0.0000

> <r_epik_Charging_Adjusted_Penalty>
0.000955123996614212

> <i_epik_Tot_Q>
0

> <i_epik_Tot_abs_Q>
0

> <s_epik_Chemistry_Notes>
This compound has an ester and may undergo hydrolysis at high or low pH.

> <s_lp_Force_Field>
OPLS3e

> <r_lp_Energy>
62.335949

> <b_lp_Chiralities_Consistent>
1

> <s_lp_Variant>
sdf/inactives_sanitized.sdf:178-1

$$$$
sdf/inactives_sanitized.sdf:179
                    3D
 Schrodinger Suite 2020-1.
 64 68  0  0  1  0            999 V2000
   -5.2761    1.6811   -0.7326 C   0  0  0  0  0  0
   -4.1444    0.9504   -1.4838 C   0  0  2  0  0  0
   -2.7661    1.6448   -1.2759 C   0  0  0  0  0  0
   -2.1359    1.4474    0.1288 C   0  0  0  0  0  0
   -0.5848    1.3599    0.1393 C   0  0  0  0  0  0
    0.0197   -0.0635   -0.0915 C   0  0  2  0  0  0
    1.4996   -0.1051    0.0234 N   0  0  0  0  0  0
    2.3134    1.0056   -0.5570 C   0  0  0  0  0  0
    3.7539    0.5769   -0.9466 C   0  0  0  0  0  0
    4.3390   -0.2647    0.1698 C   0  0  0  0  0  0
    3.5177   -1.0995    0.8340 C   0  0  0  0  0  0
    2.0876   -1.1872    0.6326 C   0  0  0  0  0  0
    1.4760   -2.1938    0.9953 O   0  0  0  0  0  0
    5.8112   -0.3958    0.3006 C   0  0  0  0  0  0
    6.4404   -1.5595   -0.1749 C   0  0  0  0  0  0
    5.7128   -2.5617   -0.7233 F   0  0  0  0  0  0
    7.8249   -1.7029   -0.0981 C   0  0  0  0  0  0
    8.6044   -0.6859    0.4440 C   0  0  0  0  0  0
    8.0007    0.4794    0.9093 C   0  0  0  0  0  0
    6.6119    0.6371    0.8394 C   0  0  0  0  0  0
    6.0416    1.8825    1.3506 C   0  0  0  0  0  0
    5.5892    2.8681    1.7546 N   0  0  0  0  0  0
   -0.5108   -0.7139   -1.3725 C   0  0  0  0  0  0
   -1.7053   -1.4354   -1.3280 C   0  0  0  0  0  0
   -2.3339   -1.7877   -2.5250 C   0  0  0  0  0  0
   -1.6730   -1.5234   -3.7309 C   0  0  0  0  0  0
   -0.4308   -0.8865   -3.6927 C   0  0  0  0  0  0
    0.1457   -0.4635   -2.5389 N   0  0  0  0  0  0
   -3.7095   -2.3436   -2.4888 C   0  0  0  0  0  0
   -3.9149   -3.6032   -1.9117 C   0  0  0  0  0  0
   -5.1906   -4.1596   -1.8375 C   0  0  0  0  0  0
   -6.2853   -3.4601   -2.3385 C   0  0  0  0  0  0
   -6.1049   -2.2018   -2.9086 C   0  0  0  0  0  0
   -4.8301   -1.6298   -2.9730 C   0  0  0  0  0  0
   -4.7374   -0.3674   -3.5810 N   0  0  0  0  0  0
   -4.4742    0.8232   -2.9952 C   0  0  0  0  0  0
   -4.4969    1.8456   -3.6795 O   0  0  0  0  0  0
   -6.2313    1.1685   -0.8562 H   0  0  0  0  0  0
   -5.4053    2.7045   -1.0885 H   0  0  0  0  0  0
   -5.0728    1.7275    0.3376 H   0  0  0  0  0  0
   -4.0861   -0.0463   -1.0525 H   0  0  0  0  0  0
   -2.0688    1.2875   -2.0328 H   0  0  0  0  0  0
   -2.8497    2.7128   -1.4853 H   0  0  0  0  0  0
   -2.4498    2.2812    0.7584 H   0  0  0  0  0  0
   -2.5435    0.5618    0.6176 H   0  0  0  0  0  0
   -0.1870    2.0791   -0.5770 H   0  0  0  0  0  0
   -0.2424    1.7054    1.1158 H   0  0  0  0  0  0
   -0.3798   -0.6615    0.7303 H   0  0  0  0  0  0
    1.7856    1.5327   -1.3516 H   0  0  0  0  0  0
    2.4157    1.7365    0.2465 H   0  0  0  0  0  0
    3.6970   -0.0293   -1.8520 H   0  0  0  0  0  0
    4.3733    1.4450   -1.1741 H   0  0  0  0  0  0
    3.9457   -1.7849    1.5524 H   0  0  0  0  0  0
    8.2954   -2.6036   -0.4643 H   0  0  0  0  0  0
    9.6772   -0.7992    0.5009 H   0  0  0  0  0  0
    8.6265    1.2579    1.3246 H   0  0  0  0  0  0
   -2.2051   -1.6026   -0.3845 H   0  0  0  0  0  0
   -2.1214   -1.7874   -4.6775 H   0  0  0  0  0  0
    0.1032   -0.6679   -4.6056 H   0  0  0  0  0  0
   -3.0763   -4.1608   -1.5196 H   0  0  0  0  0  0
   -5.3295   -5.1342   -1.3931 H   0  0  0  0  0  0
   -7.2734   -3.8927   -2.2850 H   0  0  0  0  0  0
   -6.9639   -1.6705   -3.2939 H   0  0  0  0  0  0
   -5.0132   -0.3385   -4.5517 H   0  0  0  0  0  0
  1  2  1  0  0  0
  1 38  1  0  0  0
  1 39  1  0  0  0
  1 40  1  0  0  0
  2  3  1  0  0  0
  2 36  1  0  0  0
  2 41  1  0  0  0
  3  4  1  0  0  0
  3 42  1  0  0  0
  3 43  1  0  0  0
  4  5  1  0  0  0
  4 44  1  0  0  0
  4 45  1  0  0  0
  5  6  1  0  0  0
  5 46  1  0  0  0
  5 47  1  0  0  0
  6  7  1  0  0  0
  6 23  1  0  0  0
  6 48  1  0  0  0
  7  8  1  0  0  0
  7 12  1  0  0  0
  8  9  1  0  0  0
  8 49  1  0  0  0
  8 50  1  0  0  0
  9 10  1  0  0  0
  9 51  1  0  0  0
  9 52  1  0  0  0
 10 11  2  0  0  0
 10 14  1  0  0  0
 11 12  1  0  0  0
 11 53  1  0  0  0
 12 13  2  0  0  0
 14 15  2  0  0  0
 14 20  1  0  0  0
 15 16  1  0  0  0
 15 17  1  0  0  0
 17 18  2  0  0  0
 17 54  1  0  0  0
 18 19  1  0  0  0
 18 55  1  0  0  0
 19 20  2  0  0  0
 19 56  1  0  0  0
 20 21  1  0  0  0
 21 22  3  0  0  0
 23 24  1  0  0  0
 23 28  2  0  0  0
 24 25  2  0  0  0
 24 57  1  0  0  0
 25 26  1  0  0  0
 25 29  1  0  0  0
 26 27  2  0  0  0
 26 58  1  0  0  0
 27 28  1  0  0  0
 27 59  1  0  0  0
 29 30  2  0  0  0
 29 34  1  0  0  0
 30 31  1  0  0  0
 30 60  1  0  0  0
 31 32  2  0  0  0
 31 61  1  0  0  0
 32 33  1  0  0  0
 32 62  1  0  0  0
 33 34  2  0  0  0
 33 63  1  0  0  0
 34 35  1  0  0  0
 35 36  1  0  0  0
 35 64  1  0  0  0
 36 37  2  0  0  0
M  END
> <chembl_id>
CHEMBL4113874

> <chembl_pref_name>
None

> <i_m_ct_stereo_status>
1

> <s_m_source_file>
sdf/inactives_sanitized.sdf

> <i_m_source_file_index>
179

> <i_lp_mmshare_version>
49012

> <i_f3d_flags>
0

> <s_epik_input>
bjFbY0hdW2NIXWMoW2NIXWMxMiljM2MoW2NIXVtjSF1bY0hdW2NIXTMpW05IXUMoPU8pW0NASF0oW0NIM10pW0NIMl1bQ0gyXVtDSDJdW0NAQEhdMk40W0NIMl1bQ0gyXUMoPVtDSF1DND1PKWM1YyhGKVtjSF1bY0hdW2NIXWM1QyNO

> <s_epik_cmdline>
J2VwaWtfcHl0aG9uJywgJy1waHQnLCAnMC41JywgJy1waCcsICc3LjUnLCAnLW50JywgJy1tYScsICcyMDAnLCAnLWltYWUnLCAnPGluZmlsZS5tYWU+JywgJy1vbWFlJywgJzxvdXRmaWxlLm1hZT4n

> <r_lp_tautomer_probability>
1

> <r_epik_Ionization_Penalty>
  0.0001

> <r_epik_Ionization_Penalty_Charging>
  0.0000

> <r_epik_Ionization_Penalty_Neutral>
  0.0001

> <r_epik_State_Penalty>
 -0.0000

> <r_epik_Charging_Adjusted_Penalty>
0

> <i_epik_Tot_Q>
0

> <i_epik_Tot_abs_Q>
0

> <s_lp_Force_Field>
OPLS3e

> <r_lp_Energy>
91.985713

> <b_lp_Chiralities_Consistent>
1

> <s_lp_Variant>
sdf/inactives_sanitized.sdf:179-1

$$$$
sdf/inactives_sanitized.sdf:180
                    3D
 Schrodinger Suite 2020-1.
 66 70  0  0  1  0            999 V2000
   -0.7781    2.1939    2.5412 C   0  0  0  0  0  0
   -0.1938    2.3554    1.2821 C   0  0  0  0  0  0
    0.8089    3.3108    1.0917 C   0  0  0  0  0  0
    1.2268    4.1012    2.1589 C   0  0  0  0  0  0
    0.6407    3.9343    3.4120 C   0  0  0  0  0  0
   -0.3598    2.9845    3.6081 C   0  0  0  0  0  0
   -0.6472    1.4789    0.1195 C   0  0  0  0  0  0
   -0.0124    0.0645    0.1124 C   0  0  2  0  0  0
    1.4538    0.1334    0.1202 N   0  0  0  0  0  0
   -0.4937   -0.7737   -1.0664 C   0  0  0  0  0  0
   -0.6429   -2.1322   -0.9977 N   0  0  0  0  0  0
   -1.0497   -2.5423   -2.2359 C   0  0  0  0  0  0
   -1.1022   -1.3779   -3.0077 C   0  0  0  0  0  0
   -0.7405   -0.3268   -2.2779 N   0  0  0  0  0  0
   -1.4986   -1.2185   -4.4439 C   0  0  0  0  0  0
   -2.1044   -0.0351   -4.8812 C   0  0  0  0  0  0
   -1.6433   -2.1010   -6.6966 C   0  0  0  0  0  0
   -1.2656   -2.2452   -5.3640 C   0  0  0  0  0  0
   -2.2617   -0.9176   -7.1258 C   0  0  0  0  0  0
   -2.4814    0.1144   -6.2124 C   0  0  0  0  0  0
   -1.3980   -4.1943   -2.5655 Cl  0  0  0  0  0  0
    2.2754   -0.7629    0.6965 C   0  0  0  0  0  0
    3.6732   -0.4458    0.5126 C   0  0  0  0  0  0
    1.8748   -1.7371    1.3380 O   0  0  0  0  0  0
    4.6648   -1.1585    1.0913 C   0  0  0  0  0  0
    6.1212   -0.9115    0.9416 C   0  0  0  0  0  0
    7.0586   -1.3391    1.9115 C   0  0  0  0  0  0
    8.4272   -1.1165    1.7095 C   0  0  0  0  0  0
    8.8765   -0.4583    0.5683 C   0  0  0  0  0  0
    7.9625   -0.0202   -0.3851 C   0  0  0  0  0  0
    6.5995   -0.2445   -0.1977 C   0  0  0  0  0  0
    8.5172    0.7944   -1.8022 Cl  0  0  0  0  0  0
    6.6801   -1.9887    3.1077 N   0  0  0  0  0  0
    5.7640   -1.4788    3.9446 N   0  0  0  0  0  0
    5.7104   -2.3655    5.0039 N   0  0  0  0  0  0
    6.6183   -3.4017    4.8091 N   0  0  0  0  0  0
    7.1918   -3.1390    3.6624 C   0  0  0  0  0  0
   -2.6792   -0.6743   -8.4452 N   0  0  0  0  0  0
   -2.7377   -1.5426   -9.5309 C   0  0  0  0  0  0
   -3.2030   -0.8570  -10.5949 O   0  0  0  0  0  0
   -2.4366   -2.7380   -9.5513 O   0  0  0  0  0  0
   -3.3953   -1.4978  -11.8484 C   0  0  0  0  0  0
   -1.5515    1.4551    2.6945 H   0  0  0  0  0  0
    1.2678    3.4377    0.1219 H   0  0  0  0  0  0
    2.0026    4.8391    2.0164 H   0  0  0  0  0  0
    0.9662    4.5463    4.2402 H   0  0  0  0  0  0
   -0.8072    2.8608    4.5834 H   0  0  0  0  0  0
   -1.7348    1.3963    0.1580 H   0  0  0  0  0  0
   -0.4362    1.9981   -0.8175 H   0  0  0  0  0  0
   -0.3543   -0.4198    1.0309 H   0  0  0  0  0  0
    1.8647    0.7982   -0.5187 H   0  0  0  0  0  0
   -0.4960   -2.7157   -0.1863 H   0  0  0  0  0  0
   -2.2920    0.7740   -4.1900 H   0  0  0  0  0  0
   -1.4364   -2.9171   -7.3700 H   0  0  0  0  0  0
   -0.7811   -3.1600   -5.0579 H   0  0  0  0  0  0
   -2.9502    1.0366   -6.5254 H   0  0  0  0  0  0
    3.8961    0.4084   -0.1117 H   0  0  0  0  0  0
    4.4004   -2.0062    1.7088 H   0  0  0  0  0  0
    9.1510   -1.4389    2.4447 H   0  0  0  0  0  0
    9.9338   -0.2863    0.4280 H   0  0  0  0  0  0
    5.9170    0.0905   -0.9646 H   0  0  0  0  0  0
    7.9636   -3.7055    3.1624 H   0  0  0  0  0  0
   -3.0111    0.2630   -8.6188 H   0  0  0  0  0  0
   -3.7640   -0.7776  -12.5788 H   0  0  0  0  0  0
   -4.1261   -2.3039  -11.7674 H   0  0  0  0  0  0
   -2.4597   -1.9141  -12.2246 H   0  0  0  0  0  0
  1  2  2  0  0  0
  1  6  1  0  0  0
  1 43  1  0  0  0
  2  3  1  0  0  0
  2  7  1  0  0  0
  3  4  2  0  0  0
  3 44  1  0  0  0
  4  5  1  0  0  0
  4 45  1  0  0  0
  5  6  2  0  0  0
  5 46  1  0  0  0
  6 47  1  0  0  0
  7  8  1  0  0  0
  7 48  1  0  0  0
  7 49  1  0  0  0
  8  9  1  0  0  0
  8 10  1  0  0  0
  8 50  1  0  0  0
  9 22  1  0  0  0
  9 51  1  0  0  0
 10 11  1  0  0  0
 10 14  2  0  0  0
 11 12  1  0  0  0
 11 52  1  0  0  0
 12 13  2  0  0  0
 12 21  1  0  0  0
 13 14  1  0  0  0
 13 15  1  0  0  0
 15 16  2  0  0  0
 15 18  1  0  0  0
 16 20  1  0  0  0
 16 53  1  0  0  0
 17 19  1  0  0  0
 17 18  2  0  0  0
 17 54  1  0  0  0
 18 55  1  0  0  0
 19 20  2  0  0  0
 19 38  1  0  0  0
 20 56  1  0  0  0
 22 23  1  0  0  0
 22 24  2  0  0  0
 23 25  2  0  0  0
 23 57  1  0  0  0
 25 26  1  0  0  0
 25 58  1  0  0  0
 26 27  1  0  0  0
 26 31  2  0  0  0
 27 28  2  0  0  0
 27 33  1  0  0  0
 28 29  1  0  0  0
 28 59  1  0  0  0
 29 30  2  0  0  0
 29 60  1  0  0  0
 30 31  1  0  0  0
 30 32  1  0  0  0
 31 61  1  0  0  0
 33 34  1  0  0  0
 33 37  1  0  0  0
 34 35  2  0  0  0
 35 36  1  0  0  0
 36 37  2  0  0  0
 37 62  1  0  0  0
 38 39  1  0  0  0
 38 63  1  0  0  0
 39 40  1  0  0  0
 39 41  2  0  0  0
 40 42  1  0  0  0
 42 64  1  0  0  0
 42 65  1  0  0  0
 42 66  1  0  0  0
M  END
> <chembl_id>
CHEMBL3398641

> <chembl_pref_name>
None

> <i_m_ct_stereo_status>
1

> <s_m_source_file>
sdf/inactives_sanitized.sdf

> <i_m_source_file_index>
180

> <i_lp_mmshare_version>
49012

> <i_f3d_flags>
0

> <s_epik_input>
W2NIXTFubm5uMS1jKFtjSF1bY0hdYyhDbClbY0hdMiljMlxbQ0hdPVtDSF1cQyg9TylbTkhdW0NAQEhdKFtDSDJdYzNbY0hdW2NIXVtjSF1bY0hdW2NIXTMpYzRbbkhdYyhDbCljKG40KS1jNVtjSF1bY0hdYyhbY0hdW2NIXTUpW05IXUMoPU8pT1tDSDNd

> <s_epik_cmdline>
J2VwaWtfcHl0aG9uJywgJy1waHQnLCAnMC41JywgJy1waCcsICc3LjUnLCAnLW50JywgJy1tYScsICcyMDAnLCAnLWltYWUnLCAnPGluZmlsZS5tYWU+JywgJy1vbWFlJywgJzxvdXRmaWxlLm1hZT4n

> <r_lp_tautomer_probability>
1

> <r_epik_Ionization_Penalty>
  0.0027

> <r_epik_Ionization_Penalty_Charging>
  0.0024

> <r_epik_Ionization_Penalty_Neutral>
  0.0003

> <r_epik_State_Penalty>
 -0.0000

> <r_epik_Charging_Adjusted_Penalty>
0.00242424154791793

> <i_epik_Tot_Q>
0

> <i_epik_Tot_abs_Q>
0

> <s_epik_Chemistry_Notes>
This compound has an ester and may undergo hydrolysis at high or low pH.

> <s_lp_Force_Field>
OPLS3e

> <r_lp_Energy>
48.975611

> <b_lp_Chiralities_Consistent>
1

> <s_lp_Variant>
sdf/inactives_sanitized.sdf:180-1

$$$$
sdf/inactives_sanitized.sdf:181
                    3D
 Schrodinger Suite 2020-1.
 75 79  0  0  1  0            999 V2000
  -11.0714   -4.4581   -2.5301 C   0  0  0  0  0  0
   -9.7206   -4.5367   -2.0956 O   0  0  0  0  0  0
   -8.7773   -3.7294   -2.6221 C   0  0  0  0  0  0
   -8.9925   -2.8859   -3.4952 O   0  0  0  0  0  0
   -7.5590   -4.0291   -2.0202 N   0  0  0  0  0  0
   -6.3018   -3.4299   -2.2065 C   0  0  0  0  0  0
   -5.2124   -4.0753   -1.6204 C   0  0  0  0  0  0
   -3.9274   -3.5534   -1.7504 C   0  0  0  0  0  0
   -3.6964   -2.3741   -2.4664 C   0  0  0  0  0  0
   -4.8015   -1.7013   -3.0334 C   0  0  0  0  0  0
   -4.6812   -0.5129   -3.7724 N   0  0  0  0  0  0
   -4.4052    0.7291   -3.3123 C   0  0  0  0  0  0
   -4.4001    1.6732   -4.1013 O   0  0  0  0  0  0
   -4.0923    1.0101   -1.8180 C   0  0  2  0  0  0
   -5.2221    1.8305   -1.1627 C   0  0  0  0  0  0
   -2.7069    1.7044   -1.6646 C   0  0  0  0  0  0
   -2.0910    1.6361   -0.2417 C   0  0  0  0  0  0
   -0.5413    1.5370   -0.2110 C   0  0  0  0  0  0
    0.0555    0.0943   -0.3023 C   0  0  2  0  0  0
    1.5352    0.0623   -0.1847 N   0  0  0  0  0  0
    2.3498    1.1006   -0.8810 C   0  0  0  0  0  0
    3.7896    0.6284   -1.2165 C   0  0  0  0  0  0
    4.3884   -0.0751   -0.0079 C   0  0  0  0  0  0
    3.5520   -0.8202    0.7463 C   0  0  0  0  0  0
    2.1242   -0.9424    0.5417 C   0  0  0  0  0  0
    1.5143   -1.9079    1.0055 O   0  0  0  0  0  0
    5.8660   -0.1513    0.1671 C   0  0  0  0  0  0
    6.7224    0.0038   -0.9321 C   0  0  0  0  0  0
    8.1051   -0.0756   -0.7821 C   0  0  0  0  0  0
    8.6588   -0.3158    0.4725 C   0  0  0  0  0  0
    7.8300   -0.4828    1.5927 C   0  0  0  0  0  0
    8.2864   -0.7239    2.8744 O   0  0  0  0  0  0
    9.6883   -0.8118    3.1054 C   0  0  0  0  0  0
    6.4455   -0.4014    1.4219 C   0  0  0  0  0  0
   -0.4793   -0.6795   -1.5115 C   0  0  0  0  0  0
   -1.6838   -1.3766   -1.3977 C   0  0  0  0  0  0
   -2.3116   -1.8473   -2.5538 C   0  0  0  0  0  0
   -1.6409   -1.7236   -3.7767 C   0  0  0  0  0  0
   -0.3904   -1.1022   -3.7993 C   0  0  0  0  0  0
    0.1863   -0.5650   -2.6939 N   0  0  0  0  0  0
   -6.0878   -2.2377   -2.9147 C   0  0  0  0  0  0
  -11.6817   -5.1689   -1.9730 H   0  0  0  0  0  0
  -11.1548   -4.6967   -3.5916 H   0  0  0  0  0  0
  -11.4792   -3.4595   -2.3663 H   0  0  0  0  0  0
   -7.5758   -4.7860   -1.3526 H   0  0  0  0  0  0
   -5.3518   -4.9907   -1.0628 H   0  0  0  0  0  0
   -3.1012   -4.0755   -1.2892 H   0  0  0  0  0  0
   -4.9466   -0.5833   -4.7440 H   0  0  0  0  0  0
   -4.0541    0.0634   -1.2839 H   0  0  0  0  0  0
   -6.1848    1.3244   -1.2510 H   0  0  0  0  0  0
   -5.3264    2.8156   -1.6201 H   0  0  0  0  0  0
   -5.0343    1.9790   -0.0988 H   0  0  0  0  0  0
   -2.0076    1.2669   -2.3763 H   0  0  0  0  0  0
   -2.7747    2.7478   -1.9776 H   0  0  0  0  0  0
   -2.4010    2.5293    0.3023 H   0  0  0  0  0  0
   -2.5110    0.8056    0.3263 H   0  0  0  0  0  0
   -0.1334    2.1831   -0.9886 H   0  0  0  0  0  0
   -0.2027    1.9708    0.7312 H   0  0  0  0  0  0
   -0.3448   -0.4193    0.5745 H   0  0  0  0  0  0
    1.8250    1.5371   -1.7305 H   0  0  0  0  0  0
    2.4511    1.9156   -0.1627 H   0  0  0  0  0  0
    3.7328   -0.0773   -2.0466 H   0  0  0  0  0  0
    4.3960    1.4745   -1.5409 H   0  0  0  0  0  0
    3.9552   -1.4216    1.5478 H   0  0  0  0  0  0
    6.3258    0.1804   -1.9210 H   0  0  0  0  0  0
    8.7483    0.0471   -1.6411 H   0  0  0  0  0  0
    9.7336   -0.3699    0.5559 H   0  0  0  0  0  0
    9.8671   -1.0057    4.1630 H   0  0  0  0  0  0
   10.1950    0.1204    2.8506 H   0  0  0  0  0  0
   10.1371   -1.6298    2.5398 H   0  0  0  0  0  0
    5.8193   -0.5195    2.2942 H   0  0  0  0  0  0
   -2.1905   -1.4351   -0.4450 H   0  0  0  0  0  0
   -2.0880   -2.0826   -4.6923 H   0  0  0  0  0  0
    0.1512   -0.9900   -4.7269 H   0  0  0  0  0  0
   -6.9092   -1.7008   -3.3633 H   0  0  0  0  0  0
  1  2  1  0  0  0
  1 42  1  0  0  0
  1 43  1  0  0  0
  1 44  1  0  0  0
  2  3  1  0  0  0
  3  4  2  0  0  0
  3  5  1  0  0  0
  5  6  1  0  0  0
  5 45  1  0  0  0
  6  7  2  0  0  0
  6 41  1  0  0  0
  7  8  1  0  0  0
  7 46  1  0  0  0
  8  9  2  0  0  0
  8 47  1  0  0  0
  9 10  1  0  0  0
  9 37  1  0  0  0
 10 11  1  0  0  0
 10 41  2  0  0  0
 11 12  1  0  0  0
 11 48  1  0  0  0
 12 13  2  0  0  0
 12 14  1  0  0  0
 14 15  1  0  0  0
 14 16  1  0  0  0
 14 49  1  0  0  0
 15 50  1  0  0  0
 15 51  1  0  0  0
 15 52  1  0  0  0
 16 17  1  0  0  0
 16 53  1  0  0  0
 16 54  1  0  0  0
 17 18  1  0  0  0
 17 55  1  0  0  0
 17 56  1  0  0  0
 18 19  1  0  0  0
 18 57  1  0  0  0
 18 58  1  0  0  0
 19 20  1  0  0  0
 19 35  1  0  0  0
 19 59  1  0  0  0
 20 21  1  0  0  0
 20 25  1  0  0  0
 21 22  1  0  0  0
 21 60  1  0  0  0
 21 61  1  0  0  0
 22 23  1  0  0  0
 22 62  1  0  0  0
 22 63  1  0  0  0
 23 24  2  0  0  0
 23 27  1  0  0  0
 24 25  1  0  0  0
 24 64  1  0  0  0
 25 26  2  0  0  0
 27 28  2  0  0  0
 27 34  1  0  0  0
 28 29  1  0  0  0
 28 65  1  0  0  0
 29 30  2  0  0  0
 29 66  1  0  0  0
 30 31  1  0  0  0
 30 67  1  0  0  0
 31 32  1  0  0  0
 31 34  2  0  0  0
 32 33  1  0  0  0
 33 68  1  0  0  0
 33 69  1  0  0  0
 33 70  1  0  0  0
 34 71  1  0  0  0
 35 36  1  0  0  0
 35 40  2  0  0  0
 36 37  2  0  0  0
 36 72  1  0  0  0
 37 38  1  0  0  0
 38 39  2  0  0  0
 38 73  1  0  0  0
 39 40  1  0  0  0
 39 74  1  0  0  0
 41 75  1  0  0  0
M  END
> <chembl_id>
CHEMBL4106488

> <chembl_pref_name>
None

> <i_m_ct_stereo_status>
1

> <s_m_source_file>
sdf/inactives_sanitized.sdf

> <i_m_source_file_index>
181

> <i_lp_mmshare_version>
49012

> <i_f3d_flags>
0

> <s_epik_input>
W0NIM11PQyg9TylbTkhdYyhbY0hdW2NIXTEpW2NIXWMoYzEyKVtOSF1DKD1PKVtDQEhdKFtDSDNdKVtDSDJdW0NIMl1bQ0gyXVtDQEBIXShjM1tjSF1jMltjSF1bY0hdbjMpTjRbQ0gyXVtDSDJdQyg9W0NIXUM0PU8pYzVbY0hdW2NIXVtjSF1jKFtjSF01KU9bQ0gzXQ==

> <s_epik_cmdline>
J2VwaWtfcHl0aG9uJywgJy1waHQnLCAnMC41JywgJy1waCcsICc3LjUnLCAnLW50JywgJy1tYScsICcyMDAnLCAnLWltYWUnLCAnPGluZmlsZS5tYWU+JywgJy1vbWFlJywgJzxvdXRmaWxlLm1hZT4n

> <r_lp_tautomer_probability>
1

> <r_epik_Ionization_Penalty>
  0.0001

> <r_epik_Ionization_Penalty_Charging>
  0.0000

> <r_epik_Ionization_Penalty_Neutral>
  0.0001

> <r_epik_State_Penalty>
 -0.0000

> <r_epik_Charging_Adjusted_Penalty>
0

> <i_epik_Tot_Q>
0

> <i_epik_Tot_abs_Q>
0

> <s_epik_Chemistry_Notes>
This compound has an ester and may undergo hydrolysis at high or low pH.

> <s_lp_Force_Field>
OPLS3e

> <r_lp_Energy>
98.421035

> <b_lp_Chiralities_Consistent>
1

> <s_lp_Variant>
sdf/inactives_sanitized.sdf:181-1

$$$$
sdf/inactives_sanitized.sdf:182
                    3D
 Schrodinger Suite 2020-1.
 74 78  0  0  1  0            999 V2000
  -10.9475   -4.4608   -2.5947 C   0  0  0  0  0  0
   -9.5418   -4.6672   -2.5707 O   0  0  0  0  0  0
   -8.6888   -3.6333   -2.7172 C   0  0  0  0  0  0
   -9.0373   -2.4640   -2.8941 O   0  0  0  0  0  0
   -7.3891   -4.1200   -2.6156 N   0  0  0  0  0  0
   -6.1702   -3.4280   -2.7126 C   0  0  0  0  0  0
   -5.0258   -4.1259   -2.3250 C   0  0  0  0  0  0
   -3.7738   -3.5173   -2.3798 C   0  0  0  0  0  0
   -3.6306   -2.2011   -2.8314 C   0  0  0  0  0  0
   -4.7881   -1.4900   -3.2183 C   0  0  0  0  0  0
   -4.7531   -0.1738   -3.7063 N   0  0  0  0  0  0
   -4.5356    0.9653   -3.0099 C   0  0  0  0  0  0
   -4.6082    2.0471   -3.5917 O   0  0  0  0  0  0
   -4.1941    0.9594   -1.4958 C   0  0  2  0  0  0
   -5.3480    1.5612   -0.6677 C   0  0  0  0  0  0
   -2.8457    1.6925   -1.2321 C   0  0  0  0  0  0
   -2.1857    1.3835    0.1379 C   0  0  0  0  0  0
   -0.6326    1.3638    0.1199 C   0  0  0  0  0  0
    0.0261   -0.0024   -0.2595 C   0  0  2  0  0  0
    1.5073    0.0033   -0.1601 N   0  0  0  0  0  0
    2.2708    1.2049   -0.6120 C   0  0  0  0  0  0
    3.7253    0.8845   -1.0504 C   0  0  0  0  0  0
    4.3558   -0.0590   -0.0448 C   0  0  0  0  0  0
    3.5698   -0.9976    0.5175 C   0  0  0  0  0  0
    2.1428   -1.1177    0.3149 C   0  0  0  0  0  0
    1.5748   -2.1837    0.5595 O   0  0  0  0  0  0
    5.8312   -0.1604    0.0313 C   0  0  0  0  0  0
    6.5187    0.9478    0.5394 C   0  0  0  0  0  0
    7.9039    0.9346    0.6679 C   0  0  0  0  0  0
    8.6234   -0.1918    0.2861 C   0  0  0  0  0  0
    7.9654   -1.3037   -0.2381 C   0  0  0  0  0  0
    8.9266   -2.6714   -0.6912 Cl  0  0  0  0  0  0
    6.5647   -1.2976   -0.3810 C   0  0  0  0  0  0
    5.8629   -2.4975   -1.0207 C   0  0  0  0  0  0
   -0.4933   -0.5437   -1.5947 C   0  0  0  0  0  0
   -1.6527   -1.3211   -1.6106 C   0  0  0  0  0  0
   -2.2806   -1.5851   -2.8302 C   0  0  0  0  0  0
   -1.6492   -1.1741   -4.0106 C   0  0  0  0  0  0
   -0.4372   -0.4856   -3.9212 C   0  0  0  0  0  0
    0.1353   -0.1499   -2.7367 N   0  0  0  0  0  0
   -6.0413   -2.1094   -3.1743 C   0  0  0  0  0  0
  -11.4634   -5.4108   -2.4563 H   0  0  0  0  0  0
  -11.2662   -4.0364   -3.5477 H   0  0  0  0  0  0
  -11.2575   -3.7873   -1.7945 H   0  0  0  0  0  0
   -7.3053   -5.1089   -2.4311 H   0  0  0  0  0  0
   -5.0981   -5.1443   -1.9696 H   0  0  0  0  0  0
   -2.9049   -4.0774   -2.0648 H   0  0  0  0  0  0
   -5.0365   -0.0656   -4.6691 H   0  0  0  0  0  0
   -4.0861   -0.0710   -1.1650 H   0  0  0  0  0  0
   -6.2831    1.0255   -0.8389 H   0  0  0  0  0  0
   -5.5210    2.6097   -0.9149 H   0  0  0  0  0  0
   -5.1371    1.5054    0.4006 H   0  0  0  0  0  0
   -2.1440    1.4467   -2.0284 H   0  0  0  0  0  0
   -2.9808    2.7710   -1.3306 H   0  0  0  0  0  0
   -2.5241    2.1360    0.8515 H   0  0  0  0  0  0
   -2.5473    0.4368    0.5405 H   0  0  0  0  0  0
   -0.2773    2.1668   -0.5264 H   0  0  0  0  0  0
   -0.2889    1.6260    1.1218 H   0  0  0  0  0  0
   -0.3381   -0.6962    0.5012 H   0  0  0  0  0  0
    1.7168    1.7970   -1.3404 H   0  0  0  0  0  0
    2.3470    1.8429    0.2697 H   0  0  0  0  0  0
    3.6886    0.3884   -2.0214 H   0  0  0  0  0  0
    4.3067    1.7985   -1.1761 H   0  0  0  0  0  0
    4.0289   -1.7503    1.1432 H   0  0  0  0  0  0
    5.9754    1.8286    0.8513 H   0  0  0  0  0  0
    8.4186    1.7954    1.0689 H   0  0  0  0  0  0
    9.6983   -0.1989    0.3939 H   0  0  0  0  0  0
    5.5970   -3.2366   -0.2647 H   0  0  0  0  0  0
    6.4879   -2.9790   -1.7725 H   0  0  0  0  0  0
    4.9617   -2.2005   -1.5573 H   0  0  0  0  0  0
   -2.1314   -1.6026   -0.6835 H   0  0  0  0  0  0
   -2.0986   -1.3649   -4.9744 H   0  0  0  0  0  0
    0.0735   -0.1538   -4.8130 H   0  0  0  0  0  0
   -6.9021   -1.5477   -3.5025 H   0  0  0  0  0  0
  1  2  1  0  0  0
  1 42  1  0  0  0
  1 43  1  0  0  0
  1 44  1  0  0  0
  2  3  1  0  0  0
  3  4  2  0  0  0
  3  5  1  0  0  0
  5  6  1  0  0  0
  5 45  1  0  0  0
  6  7  2  0  0  0
  6 41  1  0  0  0
  7  8  1  0  0  0
  7 46  1  0  0  0
  8  9  2  0  0  0
  8 47  1  0  0  0
  9 10  1  0  0  0
  9 37  1  0  0  0
 10 11  1  0  0  0
 10 41  2  0  0  0
 11 12  1  0  0  0
 11 48  1  0  0  0
 12 13  2  0  0  0
 12 14  1  0  0  0
 14 15  1  0  0  0
 14 16  1  0  0  0
 14 49  1  0  0  0
 15 50  1  0  0  0
 15 51  1  0  0  0
 15 52  1  0  0  0
 16 17  1  0  0  0
 16 53  1  0  0  0
 16 54  1  0  0  0
 17 18  1  0  0  0
 17 55  1  0  0  0
 17 56  1  0  0  0
 18 19  1  0  0  0
 18 57  1  0  0  0
 18 58  1  0  0  0
 19 20  1  0  0  0
 19 35  1  0  0  0
 19 59  1  0  0  0
 20 21  1  0  0  0
 20 25  1  0  0  0
 21 22  1  0  0  0
 21 60  1  0  0  0
 21 61  1  0  0  0
 22 23  1  0  0  0
 22 62  1  0  0  0
 22 63  1  0  0  0
 23 24  2  0  0  0
 23 27  1  0  0  0
 24 25  1  0  0  0
 24 64  1  0  0  0
 25 26  2  0  0  0
 27 28  2  0  0  0
 27 33  1  0  0  0
 28 29  1  0  0  0
 28 65  1  0  0  0
 29 30  2  0  0  0
 29 66  1  0  0  0
 30 31  1  0  0  0
 30 67  1  0  0  0
 31 32  1  0  0  0
 31 33  2  0  0  0
 33 34  1  0  0  0
 34 68  1  0  0  0
 34 69  1  0  0  0
 34 70  1  0  0  0
 35 36  1  0  0  0
 35 40  2  0  0  0
 36 37  2  0  0  0
 36 71  1  0  0  0
 37 38  1  0  0  0
 38 39  2  0  0  0
 38 72  1  0  0  0
 39 40  1  0  0  0
 39 73  1  0  0  0
 41 74  1  0  0  0
M  END
> <chembl_id>
CHEMBL4114507

> <chembl_pref_name>
None

> <i_m_ct_stereo_status>
1

> <s_m_source_file>
sdf/inactives_sanitized.sdf

> <i_m_source_file_index>
182

> <i_lp_mmshare_version>
49012

> <i_f3d_flags>
0

> <s_epik_input>
W0NIM11PQyg9TylbTkhdYyhbY0hdW2NIXTEpW2NIXWMoYzEyKVtOSF1DKD1PKVtDQEhdKFtDSDNdKVtDSDJdW0NIMl1bQ0gyXVtDQEBIXShjM1tjSF1jMltjSF1bY0hdbjMpTjRbQ0gyXVtDSDJdQyg9W0NIXUM0PU8pYzVbY0hdW2NIXVtjSF1jKENsKWM1W0NIM10=

> <s_epik_cmdline>
J2VwaWtfcHl0aG9uJywgJy1waHQnLCAnMC41JywgJy1waCcsICc3LjUnLCAnLW50JywgJy1tYScsICcyMDAnLCAnLWltYWUnLCAnPGluZmlsZS5tYWU+JywgJy1vbWFlJywgJzxvdXRmaWxlLm1hZT4n

> <r_lp_tautomer_probability>
1

> <r_epik_Ionization_Penalty>
  0.0001

> <r_epik_Ionization_Penalty_Charging>
  0.0000

> <r_epik_Ionization_Penalty_Neutral>
  0.0001

> <r_epik_State_Penalty>
 -0.0000

> <r_epik_Charging_Adjusted_Penalty>
0

> <i_epik_Tot_Q>
0

> <i_epik_Tot_abs_Q>
0

> <s_epik_Chemistry_Notes>
This compound has an ester and may undergo hydrolysis at high or low pH.

> <s_lp_Force_Field>
OPLS3e

> <r_lp_Energy>
95.418337

> <b_lp_Chiralities_Consistent>
1

> <s_lp_Variant>
sdf/inactives_sanitized.sdf:182-1

$$$$
sdf/inactives_sanitized.sdf:183
                    3D
 Schrodinger Suite 2020-1.
 68 72  0  0  1  0            999 V2000
   -3.1770    1.7231   -0.3939 C   0  0  0  0  0  0
   -2.0815    0.8193   -0.3486 O   0  0  0  0  0  0
   -0.8166    1.2722   -0.2362 C   0  0  0  0  0  0
   -0.5062    2.4654   -0.1784 O   0  0  0  0  0  0
    0.0408    0.1737   -0.1957 N   0  0  0  0  0  0
    1.4216    0.2372   -0.0695 C   0  0  0  0  0  0
    2.2403   -0.8952    0.0221 C   0  0  0  0  0  0
    3.5381   -0.4288    0.1141 C   0  0  0  0  0  0
    4.7189   -1.1363    0.2517 N   0  0  0  0  0  0
    5.6965   -1.2468   -0.6773 C   0  0  0  0  0  0
    6.6723   -1.9562   -0.4360 O   0  0  0  0  0  0
    5.6443   -0.5014   -2.0399 C   0  0  2  0  0  0
    5.5775   -1.5021   -3.2125 C   0  0  0  0  0  0
    6.8452    0.4793   -2.1796 C   0  0  0  0  0  0
    6.7060    1.5296   -3.3148 C   0  0  0  0  0  0
    7.3651    2.9047   -3.0162 C   0  0  0  0  0  0
    6.4546    3.9430   -2.2855 C   0  0  2  0  0  0
    7.0440    5.3047   -2.1797 N   0  0  0  0  0  0
    8.4991    5.4775   -1.8879 C   0  0  0  0  0  0
    9.0276    6.8678   -2.3299 C   0  0  0  0  0  0
    8.0885    7.9380   -1.8008 C   0  0  0  0  0  0
    6.7716    7.6527   -1.7581 C   0  0  0  0  0  0
    6.1814    6.3734   -2.0925 C   0  0  0  0  0  0
    4.9720    6.3017   -2.3190 O   0  0  0  0  0  0
    8.5514    9.3361   -1.6206 C   0  0  0  0  0  0
    9.3053    9.9844   -2.6140 C   0  0  0  0  0  0
    9.6143    9.3576   -3.7733 F   0  0  0  0  0  0
    9.7358   11.2986   -2.4330 C   0  0  0  0  0  0
    9.4242   11.9842   -1.2622 C   0  0  0  0  0  0
    8.6808   11.3564   -0.2650 C   0  0  0  0  0  0
    8.3074   12.2182    1.1856 Cl  0  0  0  0  0  0
    8.2463   10.0390   -0.4411 C   0  0  0  0  0  0
    7.5366    9.4391    0.5457 F   0  0  0  0  0  0
    5.9307    3.3891   -0.9572 C   0  0  0  0  0  0
    4.7479    2.6470   -0.9455 C   0  0  0  0  0  0
    4.4450    1.9019    0.1957 C   0  0  0  0  0  0
    5.2500    2.0151    1.3337 C   0  0  0  0  0  0
    6.3576    2.8638    1.2740 C   0  0  0  0  0  0
    6.7179    3.5300    0.1461 N   0  0  0  0  0  0
    3.4196    0.9466    0.1307 N   0  0  0  0  0  0
    2.1457    1.3422   -0.0160 N   0  0  0  0  0  0
   -4.1107    1.1684   -0.4867 H   0  0  0  0  0  0
   -3.0955    2.3962   -1.2486 H   0  0  0  0  0  0
   -3.2277    2.3227    0.5162 H   0  0  0  0  0  0
   -0.3795   -0.7425   -0.2473 H   0  0  0  0  0  0
    1.9240   -1.9279    0.0111 H   0  0  0  0  0  0
    4.7986   -1.7140    1.0759 H   0  0  0  0  0  0
    4.7291    0.0844   -2.0911 H   0  0  0  0  0  0
    4.7190   -2.1689   -3.1183 H   0  0  0  0  0  0
    6.4711   -2.1262   -3.2659 H   0  0  0  0  0  0
    5.4784   -0.9855   -4.1677 H   0  0  0  0  0  0
    6.9947    0.9941   -1.2313 H   0  0  0  0  0  0
    7.7713   -0.0807   -2.3224 H   0  0  0  0  0  0
    7.1524    1.1102   -4.2175 H   0  0  0  0  0  0
    5.6576    1.6868   -3.5713 H   0  0  0  0  0  0
    8.2883    2.7339   -2.4620 H   0  0  0  0  0  0
    7.6673    3.3413   -3.9693 H   0  0  0  0  0  0
    5.5837    4.0389   -2.9374 H   0  0  0  0  0  0
    8.5703    5.4917   -0.7991 H   0  0  0  0  0  0
    9.1212    4.6414   -2.1996 H   0  0  0  0  0  0
   10.0491    7.0268   -1.9822 H   0  0  0  0  0  0
    9.0407    6.8940   -3.4202 H   0  0  0  0  0  0
    6.0793    8.4373   -1.4858 H   0  0  0  0  0  0
   10.3102   11.7892   -3.2051 H   0  0  0  0  0  0
    9.7605   13.0025   -1.1307 H   0  0  0  0  0  0
    4.1597    2.5366   -1.8457 H   0  0  0  0  0  0
    5.0390    1.4472    2.2283 H   0  0  0  0  0  0
    7.0064    2.9816    2.1292 H   0  0  0  0  0  0
  1  2  1  0  0  0
  1 42  1  0  0  0
  1 43  1  0  0  0
  1 44  1  0  0  0
  2  3  1  0  0  0
  3  4  2  0  0  0
  3  5  1  0  0  0
  5  6  1  0  0  0
  5 45  1  0  0  0
  6  7  1  0  0  0
  6 41  2  0  0  0
  7  8  2  0  0  0
  7 46  1  0  0  0
  8  9  1  0  0  0
  8 40  1  0  0  0
  9 10  1  0  0  0
  9 47  1  0  0  0
 10 11  2  0  0  0
 10 12  1  0  0  0
 12 13  1  0  0  0
 12 14  1  0  0  0
 12 48  1  0  0  0
 13 49  1  0  0  0
 13 50  1  0  0  0
 13 51  1  0  0  0
 14 15  1  0  0  0
 14 52  1  0  0  0
 14 53  1  0  0  0
 15 16  1  0  0  0
 15 54  1  0  0  0
 15 55  1  0  0  0
 16 17  1  0  0  0
 16 56  1  0  0  0
 16 57  1  0  0  0
 17 18  1  0  0  0
 17 34  1  0  0  0
 17 58  1  0  0  0
 18 19  1  0  0  0
 18 23  1  0  0  0
 19 20  1  0  0  0
 19 59  1  0  0  0
 19 60  1  0  0  0
 20 21  1  0  0  0
 20 61  1  0  0  0
 20 62  1  0  0  0
 21 22  2  0  0  0
 21 25  1  0  0  0
 22 23  1  0  0  0
 22 63  1  0  0  0
 23 24  2  0  0  0
 25 26  2  0  0  0
 25 32  1  0  0  0
 26 27  1  0  0  0
 26 28  1  0  0  0
 28 29  2  0  0  0
 28 64  1  0  0  0
 29 30  1  0  0  0
 29 65  1  0  0  0
 30 31  1  0  0  0
 30 32  2  0  0  0
 32 33  1  0  0  0
 34 35  1  0  0  0
 34 39  2  0  0  0
 35 36  2  0  0  0
 35 66  1  0  0  0
 36 37  1  0  0  0
 36 40  1  0  0  0
 37 38  2  0  0  0
 37 67  1  0  0  0
 38 39  1  0  0  0
 38 68  1  0  0  0
 40 41  1  0  0  0
M  END
> <chembl_id>
CHEMBL4115341

> <chembl_pref_name>
None

> <i_m_ct_stereo_status>
1

> <s_m_source_file>
sdf/inactives_sanitized.sdf

> <i_m_source_file_index>
183

> <i_lp_mmshare_version>
49012

> <i_f3d_flags>
0

> <s_epik_input>
W0NIM11PQyg9TylbTkhdYyhbY0hdMSlubihjMTIpYzNbY0hdYyhuW2NIXVtjSF0zKVtDQEhdKFtDSDJdW0NIMl1bQ0gyXVtDQEBIXShbQ0gzXSlDKD1PKVtOSF0yKU40W0NIMl1bQ0gyXUMoPVtDSF1DND1PKWM1YyhGKVtjSF1bY0hdYyhDbCljNUY=

> <s_epik_cmdline>
J2VwaWtfcHl0aG9uJywgJy1waHQnLCAnMC41JywgJy1waCcsICc3LjUnLCAnLW50JywgJy1tYScsICcyMDAnLCAnLWltYWUnLCAnPGluZmlsZS5tYWU+JywgJy1vbWFlJywgJzxvdXRmaWxlLm1hZT4n

> <r_lp_tautomer_probability>
1

> <r_epik_Ionization_Penalty>
  0.0000

> <r_epik_Ionization_Penalty_Charging>
  0.0000

> <r_epik_Ionization_Penalty_Neutral>
  0.0000

> <r_epik_State_Penalty>
 -0.0000

> <r_epik_Charging_Adjusted_Penalty>
0

> <i_epik_Tot_Q>
0

> <i_epik_Tot_abs_Q>
0

> <s_epik_Chemistry_Notes>
This compound has an ester and may undergo hydrolysis at high or low pH.

> <s_lp_Force_Field>
OPLS3e

> <r_lp_Energy>
91.521447

> <b_lp_Chiralities_Consistent>
1

> <s_lp_Variant>
sdf/inactives_sanitized.sdf:183-1

$$$$
sdf/inactives_sanitized.sdf:184
                    3D
 Schrodinger Suite 2020-1.
 63 67  0  0  1  0            999 V2000
   -5.5205    4.0066    1.0898 C   0  0  0  0  0  0
   -6.5002    3.1469    1.5818 C   0  0  0  0  0  0
   -6.1556    1.8614    1.9943 C   0  0  0  0  0  0
   -4.8302    1.4353    1.9136 C   0  0  0  0  0  0
   -3.8314    2.2864    1.4247 C   0  0  0  0  0  0
   -4.1862    3.5897    1.0142 C   0  0  0  0  0  0
   -7.3695    0.7950    2.6007 Cl  0  0  0  0  0  0
   -3.2454    4.4999    0.4971 N   0  0  0  0  0  0
   -3.2216    5.0976   -0.7406 C   0  0  0  0  0  0
   -2.1914    5.8969   -0.8514 N   0  0  0  0  0  0
   -1.5368    5.8146    0.3743 N   0  0  0  0  0  0
   -2.2070    4.9464    1.2163 N   0  0  0  0  0  0
   -2.4012    1.7509    1.3373 C   0  0  0  0  0  0
   -1.9545    1.4375   -0.1052 C   0  0  0  0  0  0
   -0.5414    1.0988   -0.2214 N   0  0  0  0  0  0
   -0.0319   -0.1076    0.0759 C   0  0  0  0  0  0
   -0.7074   -1.0671    0.4533 O   0  0  0  0  0  0
    1.4905   -0.2728   -0.1372 C   0  0  1  0  0  0
    2.1337   -0.9711    0.9817 N   0  0  0  0  0  0
    2.2706   -0.4958    2.2361 C   0  0  0  0  0  0
    1.8854    0.6274    2.5702 O   0  0  0  0  0  0
    1.8224   -1.0261   -1.4512 C   0  0  0  0  0  0
    1.3844   -0.3359   -2.7350 C   0  0  0  0  0  0
    0.1276   -0.6233   -3.3105 C   0  0  0  0  0  0
   -0.3073    0.0877   -4.4212 C   0  0  0  0  0  0
    0.4791    1.1008   -4.9552 C   0  0  0  0  0  0
    1.7014    1.4202   -4.3770 C   0  0  0  0  0  0
    2.1534    0.7217   -3.2651 C   0  0  0  0  0  0
    2.9540   -1.4093    3.2323 C   0  0  0  0  0  0
    3.1124   -2.7830    2.9843 C   0  0  0  0  0  0
    3.7349   -3.6101    3.9156 C   0  0  0  0  0  0
    3.4313   -0.8874    4.4457 C   0  0  0  0  0  0
    4.0616   -1.6985    5.4011 C   0  0  0  0  0  0
    4.2058   -3.0761    5.1126 C   0  0  0  0  0  0
    4.8341   -3.9043    6.0583 N   0  0  0  0  0  0
    5.2972   -3.3843    7.2411 C   0  0  0  0  0  0
    5.1978   -2.0859    7.5909 C   0  0  0  0  0  0
    4.5654   -1.0987    6.7006 C   0  0  0  0  0  0
    4.4512    0.0963    6.9737 O   0  0  0  0  0  0
    5.8326   -4.3047    7.9586 O   0  5  0  0  0  0
   -5.8036    5.0005    0.7732 H   0  0  0  0  0  0
   -7.5261    3.4799    1.6411 H   0  0  0  0  0  0
   -4.5795    0.4327    2.2296 H   0  0  0  0  0  0
   -3.9797    4.8831   -1.4795 H   0  0  0  0  0  0
   -1.7157    2.4580    1.8036 H   0  0  0  0  0  0
   -2.3092    0.8464    1.9412 H   0  0  0  0  0  0
   -2.6067    0.6884   -0.5589 H   0  0  0  0  0  0
   -2.1240    2.3124   -0.7323 H   0  0  0  0  0  0
    0.0774    1.8275   -0.5471 H   0  0  0  0  0  0
    1.9481    0.7169   -0.2102 H   0  0  0  0  0  0
    2.4743   -1.8987    0.7767 H   0  0  0  0  0  0
    2.9009   -1.1818   -1.5150 H   0  0  0  0  0  0
    1.3914   -2.0291   -1.4303 H   0  0  0  0  0  0
   -0.5006   -1.3940   -2.8878 H   0  0  0  0  0  0
   -1.2646   -0.1417   -4.8658 H   0  0  0  0  0  0
    0.1327    1.6517   -5.8174 H   0  0  0  0  0  0
    2.2976    2.2215   -4.7881 H   0  0  0  0  0  0
    3.0943    0.9916   -2.8079 H   0  0  0  0  0  0
    2.7509   -3.2320    2.0703 H   0  0  0  0  0  0
    3.8456   -4.6640    3.7045 H   0  0  0  0  0  0
    3.3132    0.1684    4.6507 H   0  0  0  0  0  0
    4.9447   -4.8894    5.8703 H   0  0  0  0  0  0
    5.5924   -1.7687    8.5455 H   0  0  0  0  0  0
  1  2  2  0  0  0
  1  6  1  0  0  0
  1 41  1  0  0  0
  2  3  1  0  0  0
  2 42  1  0  0  0
  3  4  2  0  0  0
  3  7  1  0  0  0
  4  5  1  0  0  0
  4 43  1  0  0  0
  5  6  2  0  0  0
  5 13  1  0  0  0
  6  8  1  0  0  0
  8  9  1  0  0  0
  8 12  1  0  0  0
  9 10  2  0  0  0
  9 44  1  0  0  0
 10 11  1  0  0  0
 11 12  2  0  0  0
 13 14  1  0  0  0
 13 45  1  0  0  0
 13 46  1  0  0  0
 14 15  1  0  0  0
 14 47  1  0  0  0
 14 48  1  0  0  0
 15 16  1  0  0  0
 15 49  1  0  0  0
 16 17  2  0  0  0
 16 18  1  0  0  0
 18 19  1  0  0  0
 18 22  1  0  0  0
 18 50  1  0  0  0
 19 20  1  0  0  0
 19 51  1  0  0  0
 20 21  2  0  0  0
 20 29  1  0  0  0
 22 23  1  0  0  0
 22 52  1  0  0  0
 22 53  1  0  0  0
 23 24  2  0  0  0
 23 28  1  0  0  0
 24 25  1  0  0  0
 24 54  1  0  0  0
 25 26  2  0  0  0
 25 55  1  0  0  0
 26 27  1  0  0  0
 26 56  1  0  0  0
 27 28  2  0  0  0
 27 57  1  0  0  0
 28 58  1  0  0  0
 29 30  2  0  0  0
 29 32  1  0  0  0
 30 31  1  0  0  0
 30 59  1  0  0  0
 31 34  2  0  0  0
 31 60  1  0  0  0
 32 33  2  0  0  0
 32 61  1  0  0  0
 33 34  1  0  0  0
 33 38  1  0  0  0
 34 35  1  0  0  0
 35 36  1  0  0  0
 35 62  1  0  0  0
 36 37  2  0  0  0
 36 40  1  0  0  0
 37 38  1  0  0  0
 37 63  1  0  0  0
 38 39  2  0  0  0
M  CHG  1  40  -1
M  END
> <chembl_id>
CHEMBL3754781

> <chembl_pref_name>
None

> <i_m_ct_stereo_status>
1

> <s_m_source_file>
sdf/inactives_sanitized.sdf

> <i_m_source_file_index>
184

> <i_lp_mmshare_version>
49012

> <i_f3d_flags>
0

> <s_epik_input>
bjFubltjSF1uMS1jKFtjSF1bY0hdYzJDbCljKFtjSF0yKVtDSDJdW0NIMl1bTkhdQyg9TylbQ0BIXShbQ0gyXWMzW2NIXVtjSF1bY0hdW2NIXVtjSF0zKVtOSF1DKD1PKWMoW2NIXTQpW2NIXVtjSF1jKGM0NSlbbkhdYyg9TylbY0hdYzVbT0hd

> <s_epik_cmdline>
J2VwaWtfcHl0aG9uJywgJy1waHQnLCAnMC41JywgJy1waCcsICc3LjUnLCAnLW50JywgJy1tYScsICcyMDAnLCAnLWltYWUnLCAnPGluZmlsZS5tYWU+JywgJy1vbWFlJywgJzxvdXRmaWxlLm1hZT4n

> <r_lp_tautomer_probability>
1

> <r_epik_Ionization_Penalty>
  0.0031

> <r_epik_Ionization_Penalty_Charging>
  0.0031

> <r_epik_Ionization_Penalty_Neutral>
  0.0000

> <r_epik_State_Penalty>
 -0.0000

> <r_epik_Charging_Adjusted_Penalty>
0.00306066798218776

> <i_epik_Tot_Q>
-1

> <i_epik_Tot_abs_Q>
1

> <s_lp_Force_Field>
OPLS3e

> <r_lp_Energy>
33.841532

> <b_lp_Chiralities_Consistent>
1

> <s_lp_Variant>
sdf/inactives_sanitized.sdf:184-1

$$$$
sdf/inactives_sanitized.sdf:185
                    3D
 Schrodinger Suite 2020-1.
 66 70  0  0  1  0            999 V2000
   -3.0754    1.9233   -1.0638 C   0  0  0  0  0  0
   -2.3658    1.8669    0.1393 C   0  0  0  0  0  0
   -3.0513    1.7658    1.3531 C   0  0  0  0  0  0
   -4.4429    1.7210    1.3634 C   0  0  0  0  0  0
   -5.1442    1.7766    0.1607 C   0  0  0  0  0  0
   -4.4669    1.8769   -1.0528 C   0  0  0  0  0  0
   -0.8415    1.9020    0.1284 C   0  0  0  0  0  0
   -0.1871    0.5037    0.2222 C   0  0  2  0  0  0
    1.2729    0.6325    0.2832 N   0  0  0  0  0  0
   -0.5926   -0.3924   -0.9433 C   0  0  0  0  0  0
   -1.4685   -1.4350   -0.8080 N   0  0  0  0  0  0
   -1.6172   -1.9685   -2.0563 C   0  0  0  0  0  0
   -0.8148   -1.1952   -2.8944 C   0  0  0  0  0  0
   -0.2112   -0.2397   -2.1932 N   0  0  0  0  0  0
   -0.6116   -1.3472   -4.3724 C   0  0  0  0  0  0
   -1.0573   -2.5043   -5.0196 C   0  0  0  0  0  0
    0.2055   -0.5017   -6.4945 C   0  0  0  0  0  0
    0.0216   -0.3490   -5.1229 C   0  0  0  0  0  0
   -0.2450   -1.6642   -7.1365 C   0  0  0  0  0  0
   -0.8737   -2.6621   -6.3902 C   0  0  0  0  0  0
    2.1081   -0.2504    0.8615 C   0  0  0  0  0  0
    3.5004    0.1075    0.7123 C   0  0  0  0  0  0
    1.7217   -1.2472    1.4768 O   0  0  0  0  0  0
    4.5025   -0.6358    1.2318 C   0  0  0  0  0  0
    5.9561   -0.3384    1.1488 C   0  0  0  0  0  0
    6.9378   -1.3389    1.3457 C   0  0  0  0  0  0
    8.2978   -1.0049    1.3078 C   0  0  0  0  0  0
    8.6986    0.3034    1.0530 C   0  0  0  0  0  0
    7.7433    1.2920    0.8384 C   0  0  0  0  0  0
    6.3872    0.9724    0.8863 C   0  0  0  0  0  0
    8.2378    2.9153    0.5222 Cl  0  0  0  0  0  0
    6.6135   -2.6939    1.5776 N   0  0  0  0  0  0
    5.8108   -3.3908    0.7591 N   0  0  0  0  0  0
    5.7803   -4.6685    1.2864 N   0  0  0  0  0  0
    6.5896   -4.7407    2.4162 N   0  0  0  0  0  0
    7.0843   -3.5373    2.5571 C   0  0  0  0  0  0
   -0.1050   -1.9171   -8.5121 N   0  0  0  0  0  0
    0.4092   -1.1037   -9.5177 C   0  0  0  0  0  0
    0.3443   -1.7799  -10.6828 O   0  0  0  0  0  0
    0.8514    0.0415   -9.4033 O   0  0  0  0  0  0
    0.7985   -1.1907  -11.8935 C   0  0  0  0  0  0
   -2.5508    1.9950   -2.0058 H   0  0  0  0  0  0
   -2.5081    1.7187    2.2860 H   0  0  0  0  0  0
   -4.9761    1.6423    2.2994 H   0  0  0  0  0  0
   -6.2237    1.7408    0.1691 H   0  0  0  0  0  0
   -5.0181    1.9174   -1.9808 H   0  0  0  0  0  0
   -0.4967    2.4271   -0.7646 H   0  0  0  0  0  0
   -0.5161    2.5200    0.9673 H   0  0  0  0  0  0
   -0.5212    0.0565    1.1622 H   0  0  0  0  0  0
    1.6793    1.3088   -0.3464 H   0  0  0  0  0  0
   -1.9120   -1.7478    0.0440 H   0  0  0  0  0  0
   -2.2617   -2.8178   -2.2287 H   0  0  0  0  0  0
   -1.5448   -3.2930   -4.4658 H   0  0  0  0  0  0
    0.7017    0.2941   -7.0255 H   0  0  0  0  0  0
    0.3754    0.5550   -4.6489 H   0  0  0  0  0  0
   -1.2253   -3.5666   -6.8663 H   0  0  0  0  0  0
    3.7083    1.0094    0.1535 H   0  0  0  0  0  0
    4.2443   -1.5273    1.7867 H   0  0  0  0  0  0
    9.0540   -1.7619    1.4603 H   0  0  0  0  0  0
    9.7506    0.5466    1.0193 H   0  0  0  0  0  0
    5.6724    1.7676    0.7359 H   0  0  0  0  0  0
    7.7691   -3.1866    3.3153 H   0  0  0  0  0  0
   -0.4382   -2.8216   -8.8116 H   0  0  0  0  0  0
    0.6634   -1.8899  -12.7187 H   0  0  0  0  0  0
    1.8580   -0.9375  -11.8328 H   0  0  0  0  0  0
    0.2375   -0.2833  -12.1222 H   0  0  0  0  0  0
  1  2  2  0  0  0
  1  6  1  0  0  0
  1 42  1  0  0  0
  2  3  1  0  0  0
  2  7  1  0  0  0
  3  4  2  0  0  0
  3 43  1  0  0  0
  4  5  1  0  0  0
  4 44  1  0  0  0
  5  6  2  0  0  0
  5 45  1  0  0  0
  6 46  1  0  0  0
  7  8  1  0  0  0
  7 47  1  0  0  0
  7 48  1  0  0  0
  8  9  1  0  0  0
  8 10  1  0  0  0
  8 49  1  0  0  0
  9 21  1  0  0  0
  9 50  1  0  0  0
 10 11  1  0  0  0
 10 14  2  0  0  0
 11 12  1  0  0  0
 11 51  1  0  0  0
 12 13  2  0  0  0
 12 52  1  0  0  0
 13 14  1  0  0  0
 13 15  1  0  0  0
 15 16  2  0  0  0
 15 18  1  0  0  0
 16 20  1  0  0  0
 16 53  1  0  0  0
 17 19  1  0  0  0
 17 18  2  0  0  0
 17 54  1  0  0  0
 18 55  1  0  0  0
 19 20  2  0  0  0
 19 37  1  0  0  0
 20 56  1  0  0  0
 21 22  1  0  0  0
 21 23  2  0  0  0
 22 24  2  0  0  0
 22 57  1  0  0  0
 24 25  1  0  0  0
 24 58  1  0  0  0
 25 26  1  0  0  0
 25 30  2  0  0  0
 26 27  2  0  0  0
 26 32  1  0  0  0
 27 28  1  0  0  0
 27 59  1  0  0  0
 28 29  2  0  0  0
 28 60  1  0  0  0
 29 30  1  0  0  0
 29 31  1  0  0  0
 30 61  1  0  0  0
 32 33  1  0  0  0
 32 36  1  0  0  0
 33 34  2  0  0  0
 34 35  1  0  0  0
 35 36  2  0  0  0
 36 62  1  0  0  0
 37 38  1  0  0  0
 37 63  1  0  0  0
 38 39  1  0  0  0
 38 40  2  0  0  0
 39 41  1  0  0  0
 41 64  1  0  0  0
 41 65  1  0  0  0
 41 66  1  0  0  0
M  END
> <chembl_id>
CHEMBL3398642

> <chembl_pref_name>
None

> <i_m_ct_stereo_status>
1

> <s_m_source_file>
sdf/inactives_sanitized.sdf

> <i_m_source_file_index>
185

> <i_lp_mmshare_version>
49012

> <i_f3d_flags>
0

> <s_epik_input>
W2NIXTFubm5uMS1jKFtjSF1bY0hdYyhDbClbY0hdMiljMlxbQ0hdPVtDSF1cQyg9TylbTkhdW0NAQEhdKFtDSDJdYzNbY0hdW2NIXVtjSF1bY0hdW2NIXTMpYzRbbkhdW2NIXWMobjQpLWM1W2NIXVtjSF1jKFtjSF1bY0hdNSlbTkhdQyg9TylPW0NIM10=

> <s_epik_cmdline>
J2VwaWtfcHl0aG9uJywgJy1waHQnLCAnMC41JywgJy1waCcsICc3LjUnLCAnLW50JywgJy1tYScsICcyMDAnLCAnLWltYWUnLCAnPGluZmlsZS5tYWU+JywgJy1vbWFlJywgJzxvdXRmaWxlLm1hZT4n

> <r_lp_tautomer_probability>
0.499999999999999

> <r_epik_Ionization_Penalty>
  0.1201

> <r_epik_Ionization_Penalty_Charging>
  0.1201

> <r_epik_Ionization_Penalty_Neutral>
  0.0000

> <r_epik_State_Penalty>
  0.4572

> <r_epik_Charging_Adjusted_Penalty>
0.577322294419915

> <i_epik_Tot_Q>
0

> <i_epik_Tot_abs_Q>
0

> <s_epik_Chemistry_Notes>
This compound has an ester and may undergo hydrolysis at high or low pH.

> <s_lp_Force_Field>
OPLS3e

> <r_lp_Energy>
48.968106

> <b_lp_Chiralities_Consistent>
1

> <s_lp_Variant>
sdf/inactives_sanitized.sdf:185-1

$$$$
sdf/inactives_sanitized.sdf:185
                    3D
 Schrodinger Suite 2020-1.
 66 70  0  0  1  0            999 V2000
   -2.7808    1.8688   -1.2931 C   0  0  0  0  0  0
   -2.0178    1.6882   -0.1356 C   0  0  0  0  0  0
   -2.6461    1.5823    1.1083 C   0  0  0  0  0  0
   -4.0339    1.6547    1.1943 C   0  0  0  0  0  0
   -4.7887    1.8317    0.0366 C   0  0  0  0  0  0
   -4.1687    1.9388   -1.2065 C   0  0  0  0  0  0
   -0.4989    1.5880   -0.2297 C   0  0  0  0  0  0
    0.0297    0.1341   -0.2285 C   0  0  2  0  0  0
    1.4973    0.1332   -0.1687 N   0  0  0  0  0  0
   -0.5109   -0.6622   -1.4164 C   0  0  0  0  0  0
   -0.0561   -0.6098   -2.6474 N   0  0  0  0  0  0
   -0.8555   -1.4034   -3.3411 C   0  0  0  0  0  0
   -1.8714   -1.9715   -2.5730 C   0  0  0  0  0  0
   -1.6147   -1.4681   -1.3232 N   0  0  0  0  0  0
   -3.0011   -2.8889   -2.9085 C   0  0  0  0  0  0
   -3.1274   -3.3818   -4.2100 C   0  0  0  0  0  0
   -4.9939   -4.1051   -2.2714 C   0  0  0  0  0  0
   -3.9408   -3.2574   -1.9406 C   0  0  0  0  0  0
   -5.1225   -4.5949   -3.5723 C   0  0  0  0  0  0
   -4.1796   -4.2300   -4.5448 C   0  0  0  0  0  0
    2.2813   -0.9515   -0.0171 C   0  0  0  0  0  0
    3.6877   -0.6253    0.0505 C   0  0  0  0  0  0
    1.8439   -2.1033    0.0399 O   0  0  0  0  0  0
    4.6464   -1.5630    0.2189 C   0  0  0  0  0  0
    6.1085   -1.3191    0.3249 C   0  0  0  0  0  0
    7.0585   -2.3415    0.0903 C   0  0  0  0  0  0
    8.4257   -2.0798    0.2497 C   0  0  0  0  0  0
    8.8657   -0.8108    0.6147 C   0  0  0  0  0  0
    7.9426    0.2080    0.8287 C   0  0  0  0  0  0
    6.5795   -0.0456    0.6851 C   0  0  0  0  0  0
    8.4855    1.7832    1.2798 Cl  0  0  0  0  0  0
    6.6953   -3.6455   -0.3125 N   0  0  0  0  0  0
    5.9185   -3.8772   -1.3814 N   0  0  0  0  0  0
    5.8380   -5.2543   -1.4761 N   0  0  0  0  0  0
    6.5917   -5.8497   -0.4691 N   0  0  0  0  0  0
    7.1023   -4.8524    0.2073 C   0  0  0  0  0  0
   -6.2223   -5.4379   -3.8083 N   0  0  0  0  0  0
   -6.6245   -6.0669   -4.9829 C   0  0  0  0  0  0
   -7.7484   -6.7657   -4.7244 O   0  0  0  0  0  0
   -6.0762   -6.0163   -6.0861 O   0  0  0  0  0  0
   -8.3960   -7.5094   -5.7477 C   0  0  0  0  0  0
   -2.3015    1.9449   -2.2584 H   0  0  0  0  0  0
   -2.0615    1.4399    2.0057 H   0  0  0  0  0  0
   -4.5230    1.5725    2.1537 H   0  0  0  0  0  0
   -5.8655    1.8862    0.1037 H   0  0  0  0  0  0
   -4.7618    2.0739   -2.0989 H   0  0  0  0  0  0
   -0.1515    2.1201   -1.1176 H   0  0  0  0  0  0
   -0.0791    2.1369    0.6155 H   0  0  0  0  0  0
   -0.3012   -0.3195    0.7090 H   0  0  0  0  0  0
    1.9281    1.0341   -0.0214 H   0  0  0  0  0  0
   -0.7046   -1.5542   -4.3999 H   0  0  0  0  0  0
   -2.4126   -3.1103   -4.9730 H   0  0  0  0  0  0
   -5.7101   -4.3750   -1.5082 H   0  0  0  0  0  0
   -3.8643   -2.8882   -0.9284 H   0  0  0  0  0  0
   -4.2345   -4.5824   -5.5619 H   0  0  0  0  0  0
    3.9434    0.4208   -0.0437 H   0  0  0  0  0  0
    4.3417   -2.5964    0.3122 H   0  0  0  0  0  0
    9.1578   -2.8557    0.0762 H   0  0  0  0  0  0
    9.9229   -0.6194    0.7275 H   0  0  0  0  0  0
    5.8900    0.7621    0.8797 H   0  0  0  0  0  0
    7.7575   -4.8994    1.0648 H   0  0  0  0  0  0
   -6.8078   -5.6043   -3.0032 H   0  0  0  0  0  0
   -9.2852   -7.9951   -5.3459 H   0  0  0  0  0  0
   -7.7377   -8.2825   -6.1470 H   0  0  0  0  0  0
   -8.7057   -6.8600   -6.5679 H   0  0  0  0  0  0
   -2.1497   -1.6504   -0.4863 H   0  0  0  0  0  0
  1  2  2  0  0  0
  1  6  1  0  0  0
  1 42  1  0  0  0
  2  3  1  0  0  0
  2  7  1  0  0  0
  3  4  2  0  0  0
  3 43  1  0  0  0
  4  5  1  0  0  0
  4 44  1  0  0  0
  5  6  2  0  0  0
  5 45  1  0  0  0
  6 46  1  0  0  0
  7  8  1  0  0  0
  7 47  1  0  0  0
  7 48  1  0  0  0
  8  9  1  0  0  0
  8 10  1  0  0  0
  8 49  1  0  0  0
  9 21  1  0  0  0
  9 50  1  0  0  0
 10 11  2  0  0  0
 10 14  1  0  0  0
 11 12  1  0  0  0
 12 13  2  0  0  0
 12 51  1  0  0  0
 13 14  1  0  0  0
 13 15  1  0  0  0
 14 66  1  0  0  0
 15 16  2  0  0  0
 15 18  1  0  0  0
 16 20  1  0  0  0
 16 52  1  0  0  0
 17 19  1  0  0  0
 17 18  2  0  0  0
 17 53  1  0  0  0
 18 54  1  0  0  0
 19 20  2  0  0  0
 19 37  1  0  0  0
 20 55  1  0  0  0
 21 22  1  0  0  0
 21 23  2  0  0  0
 22 24  2  0  0  0
 22 56  1  0  0  0
 24 25  1  0  0  0
 24 57  1  0  0  0
 25 26  1  0  0  0
 25 30  2  0  0  0
 26 27  2  0  0  0
 26 32  1  0  0  0
 27 28  1  0  0  0
 27 58  1  0  0  0
 28 29  2  0  0  0
 28 59  1  0  0  0
 29 30  1  0  0  0
 29 31  1  0  0  0
 30 60  1  0  0  0
 32 33  1  0  0  0
 32 36  1  0  0  0
 33 34  2  0  0  0
 34 35  1  0  0  0
 35 36  2  0  0  0
 36 61  1  0  0  0
 37 38  1  0  0  0
 37 62  1  0  0  0
 38 39  1  0  0  0
 38 40  2  0  0  0
 39 41  1  0  0  0
 41 63  1  0  0  0
 41 64  1  0  0  0
 41 65  1  0  0  0
M  END
> <chembl_id>
CHEMBL3398642

> <chembl_pref_name>
None

> <i_m_ct_stereo_status>
1

> <s_m_source_file>
sdf/inactives_sanitized.sdf

> <i_m_source_file_index>
185

> <i_lp_mmshare_version>
49012

> <i_f3d_flags>
0

> <s_epik_input>
W2NIXTFubm5uMS1jKFtjSF1bY0hdYyhDbClbY0hdMiljMlxbQ0hdPVtDSF1cQyg9TylbTkhdW0NAQEhdKFtDSDJdYzNbY0hdW2NIXVtjSF1bY0hdW2NIXTMpYzRbbkhdW2NIXWMobjQpLWM1W2NIXVtjSF1jKFtjSF1bY0hdNSlbTkhdQyg9TylPW0NIM10=

> <s_epik_cmdline>
J2VwaWtfcHl0aG9uJywgJy1waHQnLCAnMC41JywgJy1waCcsICc3LjUnLCAnLW50JywgJy1tYScsICcyMDAnLCAnLWltYWUnLCAnPGluZmlsZS5tYWU+JywgJy1vbWFlJywgJzxvdXRmaWxlLm1hZT4n

> <r_lp_tautomer_probability>
0.499999999999999

> <r_epik_Ionization_Penalty>
  0.1371

> <r_epik_Ionization_Penalty_Charging>
  0.1371

> <r_epik_Ionization_Penalty_Neutral>
  0.0000

> <r_epik_State_Penalty>
  0.4882

> <r_epik_Charging_Adjusted_Penalty>
0.62534549130441

> <i_epik_Tot_Q>
0

> <i_epik_Tot_abs_Q>
0

> <s_epik_Chemistry_Notes>
This compound has an ester and may undergo hydrolysis at high or low pH.

> <s_lp_Force_Field>
OPLS3e

> <r_lp_Energy>
47.338454

> <b_lp_Chiralities_Consistent>
1

> <s_lp_Variant>
sdf/inactives_sanitized.sdf:185-2

$$$$
sdf/inactives_sanitized.sdf:186
                    3D
 Schrodinger Suite 2020-1.
 63 68  0  0  1  0            999 V2000
    0.8670    3.1873    1.1375 C   0  0  0  0  0  0
   -0.0777    2.1587    1.0779 C   0  0  0  0  0  0
   -0.6675    1.6808    2.2513 C   0  0  0  0  0  0
   -0.3107    2.2274    3.4813 C   0  0  0  0  0  0
    0.6339    3.2503    3.5337 C   0  0  0  0  0  0
    1.2242    3.7327    2.3675 C   0  0  0  0  0  0
   -0.4625    1.5484   -0.2663 C   0  0  0  0  0  0
    0.1961    0.1691   -0.5563 C   0  0  2  0  0  0
    1.6493    0.1337   -0.3127 N   0  0  0  0  0  0
   -0.1964   -0.4028   -1.9241 C   0  0  0  0  0  0
    0.5870   -1.2623   -2.6499 N   0  0  0  0  0  0
   -0.1180   -1.5894   -3.7719 C   0  0  0  0  0  0
   -1.3367   -0.9202   -3.6424 C   0  0  0  0  0  0
   -1.3622   -0.2275   -2.5072 N   0  0  0  0  0  0
   -2.5044   -0.9147   -4.5807 C   0  0  0  0  0  0
   -2.7940   -2.0645   -5.3285 C   0  0  0  0  0  0
   -4.3911    0.2834   -5.5661 C   0  0  0  0  0  0
   -3.2983    0.2333   -4.7020 C   0  0  0  0  0  0
    2.5907    0.8358   -0.9730 C   0  0  0  0  0  0
    3.9293    0.5740   -0.4977 C   0  0  0  0  0  0
    2.3338    1.6183   -1.8906 O   0  0  0  0  0  0
    5.0258    1.0612   -1.1181 C   0  0  0  0  0  0
    6.4331    0.8557   -0.6963 C   0  0  0  0  0  0
    7.5049    0.9120   -1.6179 C   0  0  0  0  0  0
    8.8230    0.7573   -1.1693 C   0  0  0  0  0  0
    9.0892    0.5234    0.1769 C   0  0  0  0  0  0
    8.0405    0.4452    1.0887 C   0  0  0  0  0  0
    6.7260    0.6091    0.6542 C   0  0  0  0  0  0
    8.3687    0.1537    2.7580 Cl  0  0  0  0  0  0
    7.3106    1.1097   -3.0033 N   0  0  0  0  0  0
    6.4705    0.3533   -3.7259 N   0  0  0  0  0  0
    6.5925    0.8170   -5.0225 N   0  0  0  0  0  0
    7.5291    1.8445   -5.0785 N   0  0  0  0  0  0
    7.9491    1.9885   -3.8474 C   0  0  0  0  0  0
   -4.6954   -0.8536   -6.3287 C   0  0  0  0  0  0
   -3.8897   -2.0099   -6.1951 C   0  0  0  0  0  0
   -4.4379   -2.9386   -7.0581 N   0  0  0  0  0  0
   -5.5088   -2.4511   -7.7119 N   0  0  0  0  0  0
   -5.6795   -1.2226   -7.2979 C   0  0  0  0  0  0
   -6.6812   -0.4134   -7.7522 N   0  0  0  0  0  0
    0.5452   -2.6139   -4.9839 Cl  0  0  0  0  0  0
    1.3291    3.5592    0.2343 H   0  0  0  0  0  0
   -1.3981    0.8858    2.2108 H   0  0  0  0  0  0
   -0.7631    1.8597    4.3904 H   0  0  0  0  0  0
    0.9113    3.6735    4.4879 H   0  0  0  0  0  0
    1.9562    4.5254    2.4172 H   0  0  0  0  0  0
   -1.5497    1.4556   -0.2932 H   0  0  0  0  0  0
   -0.2221    2.2541   -1.0635 H   0  0  0  0  0  0
   -0.2076   -0.5264    0.1807 H   0  0  0  0  0  0
    1.9543   -0.4995    0.4119 H   0  0  0  0  0  0
    1.5201   -1.5691   -2.4146 H   0  0  0  0  0  0
   -2.2017   -2.9622   -5.2362 H   0  0  0  0  0  0
   -4.9862    1.1813   -5.6445 H   0  0  0  0  0  0
   -3.0640    1.1132   -4.1199 H   0  0  0  0  0  0
    4.0193   -0.0485    0.3820 H   0  0  0  0  0  0
    4.8941    1.6799   -1.9956 H   0  0  0  0  0  0
    9.6490    0.8009   -1.8649 H   0  0  0  0  0  0
   10.1094    0.3984    0.5091 H   0  0  0  0  0  0
    5.9337    0.5632    1.3871 H   0  0  0  0  0  0
    8.6886    2.6830   -3.4766 H   0  0  0  0  0  0
   -4.1241   -3.8830   -7.2288 H   0  0  0  0  0  0
   -6.6645    0.5833   -7.5910 H   0  0  0  0  0  0
   -7.3636   -0.7503   -8.4162 H   0  0  0  0  0  0
  1  2  2  0  0  0
  1  6  1  0  0  0
  1 42  1  0  0  0
  2  3  1  0  0  0
  2  7  1  0  0  0
  3  4  2  0  0  0
  3 43  1  0  0  0
  4  5  1  0  0  0
  4 44  1  0  0  0
  5  6  2  0  0  0
  5 45  1  0  0  0
  6 46  1  0  0  0
  7  8  1  0  0  0
  7 47  1  0  0  0
  7 48  1  0  0  0
  8  9  1  0  0  0
  8 10  1  0  0  0
  8 49  1  0  0  0
  9 19  1  0  0  0
  9 50  1  0  0  0
 10 11  1  0  0  0
 10 14  2  0  0  0
 11 12  1  0  0  0
 11 51  1  0  0  0
 12 13  2  0  0  0
 12 41  1  0  0  0
 13 14  1  0  0  0
 13 15  1  0  0  0
 15 16  2  0  0  0
 15 18  1  0  0  0
 16 36  1  0  0  0
 16 52  1  0  0  0
 17 35  1  0  0  0
 17 18  2  0  0  0
 17 53  1  0  0  0
 18 54  1  0  0  0
 19 20  1  0  0  0
 19 21  2  0  0  0
 20 22  2  0  0  0
 20 55  1  0  0  0
 22 23  1  0  0  0
 22 56  1  0  0  0
 23 24  1  0  0  0
 23 28  2  0  0  0
 24 25  2  0  0  0
 24 30  1  0  0  0
 25 26  1  0  0  0
 25 57  1  0  0  0
 26 27  2  0  0  0
 26 58  1  0  0  0
 27 28  1  0  0  0
 27 29  1  0  0  0
 28 59  1  0  0  0
 30 31  1  0  0  0
 30 34  1  0  0  0
 31 32  2  0  0  0
 32 33  1  0  0  0
 33 34  2  0  0  0
 34 60  1  0  0  0
 35 36  2  0  0  0
 35 39  1  0  0  0
 36 37  1  0  0  0
 37 38  1  0  0  0
 37 61  1  0  0  0
 38 39  2  0  0  0
 39 40  1  0  0  0
 40 62  1  0  0  0
 40 63  1  0  0  0
M  END
> <chembl_id>
CHEMBL3398644

> <chembl_pref_name>
None

> <i_m_ct_stereo_status>
1

> <s_m_source_file>
sdf/inactives_sanitized.sdf

> <i_m_source_file_index>
186

> <i_lp_mmshare_version>
49012

> <i_f3d_flags>
0

> <s_epik_input>
W05IMl1jMW5bbkhdYyhjMTIpW2NIXWMoW2NIXVtjSF0yKS1jKG4zKWMoQ2wpW25IXWMzW0NASF0oW0NIMl1jNFtjSF1bY0hdW2NIXVtjSF1bY0hdNClbTkhdQyg9TykvW0NIXT1bQ0hdL2M1YyhbY0hdW2NIXWMoQ2wpW2NIXTUpLW42bm5uW2NIXTY=

> <s_epik_cmdline>
J2VwaWtfcHl0aG9uJywgJy1waHQnLCAnMC41JywgJy1waCcsICc3LjUnLCAnLW50JywgJy1tYScsICcyMDAnLCAnLWltYWUnLCAnPGluZmlsZS5tYWU+JywgJy1vbWFlJywgJzxvdXRmaWxlLm1hZT4n

> <r_lp_tautomer_probability>
1

> <r_epik_Ionization_Penalty>
  0.0030

> <r_epik_Ionization_Penalty_Charging>
  0.0024

> <r_epik_Ionization_Penalty_Neutral>
  0.0005

> <r_epik_State_Penalty>
 -0.0000

> <r_epik_Charging_Adjusted_Penalty>
0.00242424154791793

> <i_epik_Tot_Q>
0

> <i_epik_Tot_abs_Q>
0

> <s_lp_Force_Field>
OPLS3e

> <r_lp_Energy>
43.758783

> <b_lp_Chiralities_Consistent>
1

> <s_lp_Variant>
sdf/inactives_sanitized.sdf:186-1

$$$$
sdf/inactives_sanitized.sdf:187
                    3D
 Schrodinger Suite 2020-1.
 52 56  0  0  1  0            999 V2000
   -0.6138   -1.5642    5.8566 C   0  0  0  0  0  0
   -0.3462   -0.3659    6.5131 C   0  0  0  0  0  0
   -0.1501    0.8052    5.7826 C   0  0  0  0  0  0
   -0.6905   -1.6218    4.4630 C   0  0  0  0  0  0
   -0.4922   -0.4480    3.7072 C   0  0  0  0  0  0
   -0.2253    0.7438    4.4086 N   0  0  0  0  0  0
   -0.0590    1.7949    3.5684 N   0  0  0  0  0  0
   -0.4778   -0.0675    2.3400 C   0  0  0  0  0  0
   -0.2032    1.3104    2.3543 C   0  0  0  0  0  0
   -0.0741    2.1540    1.0893 C   0  0  0  0  0  0
   -0.6410    1.3356   -0.0990 C   0  0  0  0  0  0
   -0.0836   -0.1175   -0.1538 C   0  0  1  0  0  0
   -0.7200   -0.8685    1.0611 C   0  0  0  0  0  0
   -0.5470   -0.7787   -1.4779 C   0  0  0  0  0  0
    1.3942   -0.1182   -0.1297 N   0  0  0  0  0  0
    2.2400   -1.1694   -0.1076 C   0  0  0  0  0  0
    1.8765   -2.3453   -0.1487 O   0  0  0  0  0  0
   -0.9531   -2.8110    3.8342 O   0  0  0  0  0  0
    3.7045   -0.8119   -0.0118 C   0  0  0  0  0  0
    4.2143    0.2298   -0.8021 C   0  0  0  0  0  0
    5.5572    0.5938   -0.7325 C   0  0  0  0  0  0
    6.4275   -0.0725    0.1391 C   0  0  0  0  0  0
    5.9234   -1.1058    0.9378 C   0  0  0  0  0  0
    4.5785   -1.4762    0.8743 C   0  0  0  0  0  0
    4.0547   -2.7408    1.9404 Cl  0  0  0  0  0  0
    7.7956    0.2892    0.2232 N   0  0  0  0  0  0
    8.4206    0.9921   -0.7346 N   0  0  0  0  0  0
    9.6410    1.0939   -0.2550 C   0  0  0  0  0  0
    9.8798    0.5353    0.9188 N   0  0  0  0  0  0
    8.7108    0.0298    1.2151 C   0  0  0  0  0  0
    0.1424    2.1302    6.4720 C   0  0  0  0  0  0
   -0.7633   -2.4611    6.4403 H   0  0  0  0  0  0
   -0.2921   -0.3516    7.5921 H   0  0  0  0  0  0
   -0.6139    3.0972    1.1811 H   0  0  0  0  0  0
    0.9724    2.4017    0.9069 H   0  0  0  0  0  0
   -1.7329    1.3368   -0.0885 H   0  0  0  0  0  0
   -0.3513    1.8685   -1.0061 H   0  0  0  0  0  0
   -0.3155   -1.8763    1.1548 H   0  0  0  0  0  0
   -1.7934   -0.9977    0.9154 H   0  0  0  0  0  0
   -1.6302   -0.7202   -1.5926 H   0  0  0  0  0  0
   -0.2846   -1.8358   -1.5277 H   0  0  0  0  0  0
   -0.1049   -0.2901   -2.3475 H   0  0  0  0  0  0
    1.8113    0.7987   -0.0685 H   0  0  0  0  0  0
   -1.0548   -3.5458    4.4434 H   0  0  0  0  0  0
    3.5728    0.7645   -1.4887 H   0  0  0  0  0  0
    5.9093    1.3999   -1.3599 H   0  0  0  0  0  0
    6.5717   -1.6357    1.6202 H   0  0  0  0  0  0
   10.4170    1.6142   -0.7975 H   0  0  0  0  0  0
    8.4417   -0.5176    2.1060 H   0  0  0  0  0  0
    0.1683    2.0240    7.5571 H   0  0  0  0  0  0
   -0.6243    2.8649    6.2237 H   0  0  0  0  0  0
    1.1072    2.5220    6.1481 H   0  0  0  0  0  0
  1  2  1  0  0  0
  1  4  2  0  0  0
  1 32  1  0  0  0
  2  3  2  0  0  0
  2 33  1  0  0  0
  3  6  1  0  0  0
  3 31  1  0  0  0
  4  5  1  0  0  0
  4 18  1  0  0  0
  5  6  1  0  0  0
  5  8  2  0  0  0
  6  7  1  0  0  0
  7  9  2  0  0  0
  8  9  1  0  0  0
  8 13  1  0  0  0
  9 10  1  0  0  0
 10 11  1  0  0  0
 10 34  1  0  0  0
 10 35  1  0  0  0
 11 12  1  0  0  0
 11 36  1  0  0  0
 11 37  1  0  0  0
 12 13  1  0  0  0
 12 14  1  0  0  0
 12 15  1  0  0  0
 13 38  1  0  0  0
 13 39  1  0  0  0
 14 40  1  0  0  0
 14 41  1  0  0  0
 14 42  1  0  0  0
 15 16  1  0  0  0
 15 43  1  0  0  0
 16 17  2  0  0  0
 16 19  1  0  0  0
 18 44  1  0  0  0
 19 20  2  0  0  0
 19 24  1  0  0  0
 20 21  1  0  0  0
 20 45  1  0  0  0
 21 22  2  0  0  0
 21 46  1  0  0  0
 22 23  1  0  0  0
 22 26  1  0  0  0
 23 24  2  0  0  0
 23 47  1  0  0  0
 24 25  1  0  0  0
 26 27  1  0  0  0
 26 30  1  0  0  0
 27 28  2  0  0  0
 28 29  1  0  0  0
 28 48  1  0  0  0
 29 30  2  0  0  0
 30 49  1  0  0  0
 31 50  1  0  0  0
 31 51  1  0  0  0
 31 52  1  0  0  0
M  END
> <chembl_id>
CHEMBL3421647

> <chembl_pref_name>
None

> <s_m_source_file>
sdf/inactives_sanitized.sdf

> <i_m_source_file_index>
187

> <i_lp_mmshare_version>
49012

> <i_m_ct_stereo_status>
1

> <i_f3d_flags>
0

> <s_epik_input>
W09IXWMxW2NIXVtjSF1jKFtDSDNdKW4oYzEyKW5jM2MyW0NIMl1bQ0BAXShbQ0gzXSkoW0NIMl1bQ0gyXTMpW05IXUMoPU8pYzRbY0hdW2NIXWMoW2NIXWM0Q2wpLW41bltjSF1uW2NIXTU=

> <s_epik_cmdline>
J2VwaWtfcHl0aG9uJywgJy1waHQnLCAnMC41JywgJy1waCcsICc3LjUnLCAnLW50JywgJy1tYScsICcyMDAnLCAnLWltYWUnLCAnPGluZmlsZS5tYWU+JywgJy1vbWFlJywgJzxvdXRmaWxlLm1hZT4n

> <r_lp_tautomer_probability>
1

> <r_epik_Ionization_Penalty>
  0.0172

> <r_epik_Ionization_Penalty_Charging>
  0.0000

> <r_epik_Ionization_Penalty_Neutral>
  0.0172

> <r_epik_State_Penalty>
  0.0136

> <r_epik_Charging_Adjusted_Penalty>
0.0135721177526746

> <i_epik_Tot_Q>
0

> <i_epik_Tot_abs_Q>
0

> <s_lp_Force_Field>
OPLS3e

> <r_lp_Energy>
34.68078

> <b_lp_Chiralities_Consistent>
1

> <s_lp_Variant>
sdf/inactives_sanitized.sdf:187-1

$$$$
sdf/inactives_sanitized.sdf:188
                    3D
 Schrodinger Suite 2020-1.
 46 49  0  0  1  0            999 V2000
   -0.6798   -1.8334    5.7283 C   0  0  0  0  0  0
   -0.4497   -0.6837    6.4792 C   0  0  0  0  0  0
   -0.2524    0.5412    5.8433 C   0  0  0  0  0  0
   -0.7152   -1.7883    4.3325 C   0  0  0  0  0  0
   -0.5127   -0.5593    3.6715 C   0  0  0  0  0  0
   -0.2876    0.5810    4.4669 N   0  0  0  0  0  0
   -0.1206    1.6945    3.7120 N   0  0  0  0  0  0
   -0.4643   -0.0790    2.3366 C   0  0  0  0  0  0
   -0.2255    1.3004    2.4616 C   0  0  0  0  0  0
   -0.1000    2.2415    1.2676 C   0  0  0  0  0  0
   -0.6570    1.5111    0.0206 C   0  0  0  0  0  0
   -0.0583    0.0810   -0.1540 C   0  0  1  0  0  0
   -0.6536   -0.7893    0.9955 C   0  0  0  0  0  0
   -0.5128   -0.5306   -1.5049 C   0  0  0  0  0  0
    1.4165    0.0260   -0.1024 N   0  0  0  0  0  0
    2.3085    0.6577   -0.8917 C   0  0  0  0  0  0
    3.7536    0.4248   -0.5354 C   0  0  0  0  0  0
    2.0045    1.4262   -1.8050 O   0  0  0  0  0  0
   -0.9455   -2.9299    3.6099 O   0  0  0  0  0  0
    4.3193   -0.8666   -0.4474 C   0  0  0  0  0  0
    5.6733   -1.0110   -0.1347 C   0  0  0  0  0  0
    6.4767    0.1081    0.0738 C   0  0  0  0  0  0
    5.9320    1.3843   -0.0384 C   0  0  0  0  0  0
    4.5822    1.5407   -0.3483 C   0  0  0  0  0  0
    3.4076   -2.3144   -0.7351 Cl  0  0  0  0  0  0
   -0.0027    1.8158    6.6367 C   0  0  0  0  0  0
   -0.8330   -2.7730    6.2396 H   0  0  0  0  0  0
   -0.4272   -0.7487    7.5576 H   0  0  0  0  0  0
   -0.6487    3.1696    1.4308 H   0  0  0  0  0  0
    0.9440    2.5135    1.1080 H   0  0  0  0  0  0
   -1.7479    1.4752    0.0446 H   0  0  0  0  0  0
   -0.4014    2.1256   -0.8436 H   0  0  0  0  0  0
   -0.1798   -1.7724    1.0095 H   0  0  0  0  0  0
   -1.7174   -0.9734    0.8366 H   0  0  0  0  0  0
   -1.6004   -0.5812   -1.5724 H   0  0  0  0  0  0
   -0.1342   -1.5457   -1.6339 H   0  0  0  0  0  0
   -0.1747    0.0556   -2.3597 H   0  0  0  0  0  0
    1.7904   -0.5490    0.6383 H   0  0  0  0  0  0
   -1.0772   -3.7049    4.1609 H   0  0  0  0  0  0
    6.1084   -1.9971   -0.0605 H   0  0  0  0  0  0
    7.5229   -0.0138    0.3129 H   0  0  0  0  0  0
    6.5552    2.2535    0.1129 H   0  0  0  0  0  0
    4.1816    2.5415   -0.4322 H   0  0  0  0  0  0
   -0.0121    1.6311    7.7116 H   0  0  0  0  0  0
   -0.7712    2.5572    6.4156 H   0  0  0  0  0  0
    0.9668    2.2416    6.3760 H   0  0  0  0  0  0
  1  2  1  0  0  0
  1  4  2  0  0  0
  1 27  1  0  0  0
  2  3  2  0  0  0
  2 28  1  0  0  0
  3  6  1  0  0  0
  3 26  1  0  0  0
  4  5  1  0  0  0
  4 19  1  0  0  0
  5  6  1  0  0  0
  5  8  2  0  0  0
  6  7  1  0  0  0
  7  9  2  0  0  0
  8  9  1  0  0  0
  8 13  1  0  0  0
  9 10  1  0  0  0
 10 11  1  0  0  0
 10 29  1  0  0  0
 10 30  1  0  0  0
 11 12  1  0  0  0
 11 31  1  0  0  0
 11 32  1  0  0  0
 12 13  1  0  0  0
 12 14  1  0  0  0
 12 15  1  0  0  0
 13 33  1  0  0  0
 13 34  1  0  0  0
 14 35  1  0  0  0
 14 36  1  0  0  0
 14 37  1  0  0  0
 15 16  1  0  0  0
 15 38  1  0  0  0
 16 17  1  0  0  0
 16 18  2  0  0  0
 17 20  2  0  0  0
 17 24  1  0  0  0
 19 39  1  0  0  0
 20 21  1  0  0  0
 20 25  1  0  0  0
 21 22  2  0  0  0
 21 40  1  0  0  0
 22 23  1  0  0  0
 22 41  1  0  0  0
 23 24  2  0  0  0
 23 42  1  0  0  0
 24 43  1  0  0  0
 26 44  1  0  0  0
 26 45  1  0  0  0
 26 46  1  0  0  0
M  END
> <chembl_id>
CHEMBL3423049

> <chembl_pref_name>
None

> <s_m_source_file>
sdf/inactives_sanitized.sdf

> <i_m_source_file_index>
188

> <i_lp_mmshare_version>
49012

> <i_m_ct_stereo_status>
1

> <i_f3d_flags>
0

> <s_epik_input>
W09IXWMxW2NIXVtjSF1jKFtDSDNdKW4oYzEyKW5jM2MyW0NIMl1bQ0BAXShbQ0gzXSkoW0NIMl1bQ0gyXTMpW05IXUMoPU8pYzRjKENsKVtjSF1bY0hdW2NIXVtjSF00

> <s_epik_cmdline>
J2VwaWtfcHl0aG9uJywgJy1waHQnLCAnMC41JywgJy1waCcsICc3LjUnLCAnLW50JywgJy1tYScsICcyMDAnLCAnLWltYWUnLCAnPGluZmlsZS5tYWU+JywgJy1vbWFlJywgJzxvdXRmaWxlLm1hZT4n

> <r_epik_Ionization_Penalty>
  0.0171

> <r_epik_Ionization_Penalty_Charging>
  0.0000

> <r_epik_Ionization_Penalty_Neutral>
  0.0171

> <r_epik_State_Penalty>
  0.0136

> <r_epik_Charging_Adjusted_Penalty>
0.0135721177526746

> <i_epik_Tot_Q>
0

> <i_epik_Tot_abs_Q>
0

> <s_lp_Force_Field>
OPLS3e

> <r_lp_Energy>
30.052763

> <b_lp_Chiralities_Consistent>
1

> <s_lp_Variant>
sdf/inactives_sanitized.sdf:188-1

$$$$
sdf/inactives_sanitized.sdf:189
                    3D
 Schrodinger Suite 2020-1.
 46 49  0  0  1  0            999 V2000
   -0.6311   -1.7060    5.8075 C   0  0  0  0  0  0
   -0.4406   -0.5245    6.5192 C   0  0  0  0  0  0
   -0.2767    0.6831    5.8424 C   0  0  0  0  0  0
   -0.6630   -1.7094    4.4109 C   0  0  0  0  0  0
   -0.4979   -0.4977    3.7090 C   0  0  0  0  0  0
   -0.3072    0.6750    4.4655 N   0  0  0  0  0  0
   -0.1672    1.7662    3.6732 N   0  0  0  0  0  0
   -0.4646   -0.0612    2.3589 C   0  0  0  0  0  0
   -0.2578    1.3268    2.4369 C   0  0  0  0  0  0
   -0.1487    2.2283    1.2114 C   0  0  0  0  0  0
   -0.6844    1.4440   -0.0119 C   0  0  0  0  0  0
   -0.0582    0.0203   -0.1345 C   0  0  1  0  0  0
   -0.6414   -0.8200    1.0430 C   0  0  0  0  0  0
   -0.4983   -0.6460   -1.4642 C   0  0  0  0  0  0
    1.4174   -0.0071   -0.0745 N   0  0  0  0  0  0
    2.3072    0.6151   -0.8770 C   0  0  0  0  0  0
    3.7685    0.3876   -0.5542 C   0  0  0  0  0  0
    1.9765    1.3171   -1.8344 O   0  0  0  0  0  0
   -0.8523   -2.8819    3.7267 O   0  0  0  0  0  0
    4.7413    0.6311   -1.5349 C   0  0  0  0  0  0
    6.0910    0.4299   -1.2583 C   0  0  0  0  0  0
    6.4802   -0.0124    0.0029 C   0  0  0  0  0  0
    5.5294   -0.2538    0.9904 C   0  0  0  0  0  0
    4.1790   -0.0545    0.7150 C   0  0  0  0  0  0
    7.7912   -0.2071    0.2708 F   0  0  0  0  0  0
   -0.0699    1.9910    6.5926 C   0  0  0  0  0  0
   -0.7562   -2.6320    6.3502 H   0  0  0  0  0  0
   -0.4221   -0.5517    7.5992 H   0  0  0  0  0  0
   -0.7185    3.1491    1.3405 H   0  0  0  0  0  0
    0.8895    2.5181    1.0455 H   0  0  0  0  0  0
   -1.7745    1.3880    0.0088 H   0  0  0  0  0  0
   -0.4366    2.0327   -0.8960 H   0  0  0  0  0  0
   -0.1539   -1.7954    1.0900 H   0  0  0  0  0  0
   -1.7023   -1.0242    0.8893 H   0  0  0  0  0  0
   -1.5845   -0.7212   -1.5299 H   0  0  0  0  0  0
   -0.0992   -1.6569   -1.5595 H   0  0  0  0  0  0
   -0.1727   -0.0822   -2.3386 H   0  0  0  0  0  0
    1.7942   -0.5345    0.6992 H   0  0  0  0  0  0
   -0.9537   -3.6427    4.3033 H   0  0  0  0  0  0
    4.4610    0.9740   -2.5211 H   0  0  0  0  0  0
    6.8328    0.6168   -2.0206 H   0  0  0  0  0  0
    5.8379   -0.5933    1.9683 H   0  0  0  0  0  0
    3.4629   -0.2430    1.5022 H   0  0  0  0  0  0
   -0.0656    1.8405    7.6728 H   0  0  0  0  0  0
   -0.8672    2.6954    6.3533 H   0  0  0  0  0  0
    0.8812    2.4444    6.3117 H   0  0  0  0  0  0
  1  2  1  0  0  0
  1  4  2  0  0  0
  1 27  1  0  0  0
  2  3  2  0  0  0
  2 28  1  0  0  0
  3  6  1  0  0  0
  3 26  1  0  0  0
  4  5  1  0  0  0
  4 19  1  0  0  0
  5  6  1  0  0  0
  5  8  2  0  0  0
  6  7  1  0  0  0
  7  9  2  0  0  0
  8  9  1  0  0  0
  8 13  1  0  0  0
  9 10  1  0  0  0
 10 11  1  0  0  0
 10 29  1  0  0  0
 10 30  1  0  0  0
 11 12  1  0  0  0
 11 31  1  0  0  0
 11 32  1  0  0  0
 12 13  1  0  0  0
 12 14  1  0  0  0
 12 15  1  0  0  0
 13 33  1  0  0  0
 13 34  1  0  0  0
 14 35  1  0  0  0
 14 36  1  0  0  0
 14 37  1  0  0  0
 15 16  1  0  0  0
 15 38  1  0  0  0
 16 17  1  0  0  0
 16 18  2  0  0  0
 17 20  2  0  0  0
 17 24  1  0  0  0
 19 39  1  0  0  0
 20 21  1  0  0  0
 20 40  1  0  0  0
 21 22  2  0  0  0
 21 41  1  0  0  0
 22 23  1  0  0  0
 22 25  1  0  0  0
 23 24  2  0  0  0
 23 42  1  0  0  0
 24 43  1  0  0  0
 26 44  1  0  0  0
 26 45  1  0  0  0
 26 46  1  0  0  0
M  END
> <chembl_id>
CHEMBL3423047

> <chembl_pref_name>
None

> <s_m_source_file>
sdf/inactives_sanitized.sdf

> <i_m_source_file_index>
189

> <i_lp_mmshare_version>
49012

> <i_m_ct_stereo_status>
1

> <i_f3d_flags>
0

> <s_epik_input>
W09IXWMxW2NIXVtjSF1jKFtDSDNdKW4oYzEyKW5jM2MyW0NIMl1bQ0BAXShbQ0gzXSkoW0NIMl1bQ0gyXTMpW05IXUMoPU8pYzRbY0hdW2NIXWMoRilbY0hdW2NIXTQ=

> <s_epik_cmdline>
J2VwaWtfcHl0aG9uJywgJy1waHQnLCAnMC41JywgJy1waCcsICc3LjUnLCAnLW50JywgJy1tYScsICcyMDAnLCAnLWltYWUnLCAnPGluZmlsZS5tYWU+JywgJy1vbWFlJywgJzxvdXRmaWxlLm1hZT4n

> <r_epik_Ionization_Penalty>
  0.0171

> <r_epik_Ionization_Penalty_Charging>
  0.0000

> <r_epik_Ionization_Penalty_Neutral>
  0.0171

> <r_epik_State_Penalty>
  0.0136

> <r_epik_Charging_Adjusted_Penalty>
0.0135721177526746

> <i_epik_Tot_Q>
0

> <i_epik_Tot_abs_Q>
0

> <s_lp_Force_Field>
OPLS3e

> <r_lp_Energy>
25.458506

> <b_lp_Chiralities_Consistent>
1

> <s_lp_Variant>
sdf/inactives_sanitized.sdf:189-1

$$$$
sdf/inactives_sanitized.sdf:190
                    3D
 Schrodinger Suite 2020-1.
 44 47  0  0  1  0            999 V2000
   -1.7157    1.8421   -0.5489 N   0  0  0  0  0  0
   -0.6649    3.6722    0.0622 C   0  0  0  0  0  0
   -0.5008    5.0374    0.3364 C   0  0  0  0  0  0
   -3.0206    4.0321   -0.5673 C   0  0  0  0  0  0
   -2.8247    5.3861   -0.2843 C   0  0  0  0  0  0
   -1.5962    5.8947    0.1584 C   0  0  0  0  0  0
   -1.9201    3.1923   -0.3848 C   0  0  0  0  0  0
   -0.4090    1.5775   -0.2090 C   0  0  0  0  0  0
    0.2469    2.6536    0.1598 N   0  0  0  0  0  0
    0.1559    0.1676   -0.2739 C   0  0  0  0  0  0
    1.6314    0.0494    0.1695 C   0  0  0  0  0  0
    2.1675   -1.3061    0.0492 N   0  0  0  0  0  0
    1.9066   -2.3249    0.8925 C   0  0  0  0  0  0
    2.5580   -3.6566    0.5757 C   0  0  0  0  0  0
    1.1843   -2.1963    1.8840 O   0  0  0  0  0  0
    3.2147   -3.8848   -0.6450 C   0  0  0  0  0  0
    3.8005   -5.1181   -0.9162 C   0  0  0  0  0  0
    3.7377   -6.1459    0.0291 C   0  0  0  0  0  0
    3.0854   -5.9309    1.2464 C   0  0  0  0  0  0
    2.5009   -4.6967    1.5144 C   0  0  0  0  0  0
    4.3292   -7.3980   -0.2455 N   0  0  0  0  0  0
    5.4027   -7.6884   -1.0592 C   0  0  0  0  0  0
    5.6790   -8.9683   -1.0760 N   0  0  0  0  0  0
    4.7557   -9.5877   -0.2401 N   0  0  0  0  0  0
    3.9812   -8.6431    0.2317 C   0  0  0  0  0  0
   -1.4737    7.3911    0.4464 C   0  0  0  0  0  0
   -2.4096    7.7615    1.3214 F   0  0  0  0  0  0
   -0.2828    7.7210    0.9505 F   0  0  0  0  0  0
   -1.6518    8.0759   -0.6836 F   0  0  0  0  0  0
   -2.3665    1.1336   -0.8558 H   0  0  0  0  0  0
    0.4536    5.4126    0.6761 H   0  0  0  0  0  0
   -3.9766    3.6625   -0.9078 H   0  0  0  0  0  0
   -3.6581    6.0619   -0.4151 H   0  0  0  0  0  0
   -0.4551   -0.4882    0.3479 H   0  0  0  0  0  0
    0.0629   -0.2113   -1.2927 H   0  0  0  0  0  0
    2.2505    0.7013   -0.4482 H   0  0  0  0  0  0
    1.7534    0.4116    1.1929 H   0  0  0  0  0  0
    2.7897   -1.4718   -0.7280 H   0  0  0  0  0  0
    3.2763   -3.1169   -1.4025 H   0  0  0  0  0  0
    4.2914   -5.2662   -1.8671 H   0  0  0  0  0  0
    3.0306   -6.7088    1.9938 H   0  0  0  0  0  0
    2.0045   -4.5596    2.4649 H   0  0  0  0  0  0
    5.9252   -6.9070   -1.5912 H   0  0  0  0  0  0
    3.1484   -8.7670    0.9083 H   0  0  0  0  0  0
  1  7  1  0  0  0
  1  8  1  0  0  0
  1 30  1  0  0  0
  2  3  2  0  0  0
  2  7  1  0  0  0
  2  9  1  0  0  0
  3  6  1  0  0  0
  3 31  1  0  0  0
  4  7  2  0  0  0
  4  5  1  0  0  0
  4 32  1  0  0  0
  5  6  2  0  0  0
  5 33  1  0  0  0
  6 26  1  0  0  0
  8  9  2  0  0  0
  8 10  1  0  0  0
 10 11  1  0  0  0
 10 34  1  0  0  0
 10 35  1  0  0  0
 11 12  1  0  0  0
 11 36  1  0  0  0
 11 37  1  0  0  0
 12 13  1  0  0  0
 12 38  1  0  0  0
 13 14  1  0  0  0
 13 15  2  0  0  0
 14 16  2  0  0  0
 14 20  1  0  0  0
 16 17  1  0  0  0
 16 39  1  0  0  0
 17 18  2  0  0  0
 17 40  1  0  0  0
 18 19  1  0  0  0
 18 21  1  0  0  0
 19 20  2  0  0  0
 19 41  1  0  0  0
 20 42  1  0  0  0
 21 22  1  0  0  0
 21 25  1  0  0  0
 22 23  2  0  0  0
 22 43  1  0  0  0
 23 24  1  0  0  0
 24 25  2  0  0  0
 25 44  1  0  0  0
 26 27  1  0  0  0
 26 28  1  0  0  0
 26 29  1  0  0  0
M  END
> <chembl_id>
CHEMBL3423028

> <chembl_pref_name>
None

> <s_m_source_file>
sdf/inactives_sanitized.sdf

> <i_m_source_file_index>
190

> <i_lp_mmshare_version>
49012

> <i_m_ct_stereo_status>
1

> <i_f3d_flags>
0

> <s_epik_input>
RkMoRikoRiljKFtjSF0xKVtjSF1bY0hdYyhjMTIpW25IXWMobjIpW0NIMl1bQ0gyXVtOSF1DKD1PKWMzW2NIXVtjSF1jKFtjSF1bY0hdMyktbjRbY0hdbm5bY0hdNA==

> <s_epik_cmdline>
J2VwaWtfcHl0aG9uJywgJy1waHQnLCAnMC41JywgJy1waCcsICc3LjUnLCAnLW50JywgJy1tYScsICcyMDAnLCAnLWltYWUnLCAnPGluZmlsZS5tYWU+JywgJy1vbWFlJywgJzxvdXRmaWxlLm1hZT4n

> <r_lp_tautomer_probability>
1

> <r_epik_Ionization_Penalty>
  0.0046

> <r_epik_Ionization_Penalty_Charging>
  0.0000

> <r_epik_Ionization_Penalty_Neutral>
  0.0046

> <r_epik_State_Penalty>
 -0.0000

> <r_epik_Charging_Adjusted_Penalty>
0

> <i_epik_Tot_Q>
0

> <i_epik_Tot_abs_Q>
0

> <s_lp_Force_Field>
OPLS3e

> <r_lp_Energy>
25.499223

> <b_lp_Chiralities_Consistent>
1

> <s_lp_Variant>
sdf/inactives_sanitized.sdf:190-1

$$$$
sdf/inactives_sanitized.sdf:191
                    3D
 Schrodinger Suite 2020-1.
 53 57  0  0  1  0            999 V2000
    2.2197   -1.2161   -0.1166 C   0  0  0  0  0  0
    3.6811   -0.8490   -0.0144 C   0  0  0  0  0  0
    4.1923    0.1804   -0.8206 C   0  0  0  0  0  0
    5.5307    0.5581   -0.7414 C   0  0  0  0  0  0
    6.3903   -0.0841    0.1543 C   0  0  0  0  0  0
    5.8903   -1.1052    0.9693 C   0  0  0  0  0  0
    4.5490   -1.4875    0.8971 C   0  0  0  0  0  0
    4.0193   -2.7284    1.9873 Cl  0  0  0  0  0  0
    7.7457    0.3008    0.2425 N   0  0  0  0  0  0
    8.2978    1.5371   -0.0006 C   0  0  0  0  0  0
    9.6586    1.4029    0.2237 C   0  0  0  0  0  0
    9.9758    0.1737    0.5829 N   0  0  0  0  0  0
    8.8337   -0.4715    0.5912 C   0  0  0  0  0  0
   -0.5444   -1.4772    5.8723 C   0  0  0  0  0  0
   -0.2568   -0.2655    6.4952 C   0  0  0  0  0  0
   -0.0695    0.8874    5.7342 C   0  0  0  0  0  0
   -0.6500   -1.5662    4.4822 C   0  0  0  0  0  0
   -0.4597   -0.4116    3.6955 C   0  0  0  0  0  0
   -0.1736    0.7948    4.3638 N   0  0  0  0  0  0
   -0.0208    1.8256    3.4963 N   0  0  0  0  0  0
   -0.4682   -0.0633    2.3197 C   0  0  0  0  0  0
   -0.1921    1.3143    2.2969 C   0  0  0  0  0  0
   -0.0882    2.1288    1.0104 C   0  0  0  0  0  0
   -0.6675    1.2803   -0.1509 C   0  0  0  0  0  0
   -0.1078   -0.1726   -0.1759 C   0  0  1  0  0  0
   -0.7312   -0.8935    1.0638 C   0  0  0  0  0  0
   -0.5809   -0.8682   -1.4783 C   0  0  0  0  0  0
    1.3700   -0.1689   -0.1630 N   0  0  0  0  0  0
    1.8617   -2.3942   -0.1367 O   0  0  0  0  0  0
   -0.9349   -2.7673    3.8866 O   0  0  0  0  0  0
    0.2453    2.2263    6.3863 C   0  0  0  0  0  0
    3.5552    0.6940   -1.5270 H   0  0  0  0  0  0
    5.8906    1.3474   -1.3854 H   0  0  0  0  0  0
    6.5365   -1.5997    1.6804 H   0  0  0  0  0  0
    7.6912    2.3808   -0.2957 H   0  0  0  0  0  0
   10.4028    2.1802    0.1293 H   0  0  0  0  0  0
    8.7025   -1.5161    0.8321 H   0  0  0  0  0  0
   -0.6869   -2.3597    6.4793 H   0  0  0  0  0  0
   -0.1804   -0.2266    7.5723 H   0  0  0  0  0  0
   -0.6323    3.0708    1.0892 H   0  0  0  0  0  0
    0.9538    2.3782    0.8058 H   0  0  0  0  0  0
   -1.7592    1.2796   -0.1289 H   0  0  0  0  0  0
   -0.3888    1.7912   -1.0742 H   0  0  0  0  0  0
   -0.3279   -1.9000    1.1749 H   0  0  0  0  0  0
   -1.8068   -1.0227    0.9355 H   0  0  0  0  0  0
   -1.6656   -0.8195   -1.5822 H   0  0  0  0  0  0
   -0.3120   -1.9243   -1.5054 H   0  0  0  0  0  0
   -0.1518   -0.3979   -2.3644 H   0  0  0  0  0  0
    1.7846    0.7505   -0.1240 H   0  0  0  0  0  0
   -1.0419   -3.4849    4.5154 H   0  0  0  0  0  0
    0.2954    2.1445    7.4727 H   0  0  0  0  0  0
   -0.5227    2.9600    6.1388 H   0  0  0  0  0  0
    1.2048    2.6048    6.0323 H   0  0  0  0  0  0
  1  2  1  0  0  0
  1 28  1  0  0  0
  1 29  2  0  0  0
  2  3  2  0  0  0
  2  7  1  0  0  0
  3  4  1  0  0  0
  3 32  1  0  0  0
  4  5  2  0  0  0
  4 33  1  0  0  0
  5  6  1  0  0  0
  5  9  1  0  0  0
  6  7  2  0  0  0
  6 34  1  0  0  0
  7  8  1  0  0  0
  9 10  1  0  0  0
  9 13  1  0  0  0
 10 11  2  0  0  0
 10 35  1  0  0  0
 11 12  1  0  0  0
 11 36  1  0  0  0
 12 13  2  0  0  0
 13 37  1  0  0  0
 14 15  1  0  0  0
 14 17  2  0  0  0
 14 38  1  0  0  0
 15 16  2  0  0  0
 15 39  1  0  0  0
 16 19  1  0  0  0
 16 31  1  0  0  0
 17 18  1  0  0  0
 17 30  1  0  0  0
 18 19  1  0  0  0
 18 21  2  0  0  0
 19 20  1  0  0  0
 20 22  2  0  0  0
 21 22  1  0  0  0
 21 26  1  0  0  0
 22 23  1  0  0  0
 23 24  1  0  0  0
 23 40  1  0  0  0
 23 41  1  0  0  0
 24 25  1  0  0  0
 24 42  1  0  0  0
 24 43  1  0  0  0
 25 26  1  0  0  0
 25 27  1  0  0  0
 25 28  1  0  0  0
 26 44  1  0  0  0
 26 45  1  0  0  0
 27 46  1  0  0  0
 27 47  1  0  0  0
 27 48  1  0  0  0
 28 49  1  0  0  0
 30 50  1  0  0  0
 31 51  1  0  0  0
 31 52  1  0  0  0
 31 53  1  0  0  0
M  END
> <chembl_id>
CHEMBL3423053

> <chembl_pref_name>
None

> <s_m_source_file>
sdf/inactives_sanitized.sdf

> <i_m_source_file_index>
191

> <i_lp_mmshare_version>
49012

> <i_m_ct_stereo_status>
1

> <i_f3d_flags>
0

> <s_epik_input>
W2NIXTFuW2NIXVtjSF1uMS1jKFtjSF1jMkNsKVtjSF1bY0hdYzJDKD1PKVtOSF1bQ0BdKFtDSDNdKShbQ0gyXVtDSDJdMylbQ0gyXWM0YzNubihjNDUpYyhbQ0gzXSlbY0hdW2NIXWM1W09IXQ==

> <s_epik_cmdline>
J2VwaWtfcHl0aG9uJywgJy1waHQnLCAnMC41JywgJy1waCcsICc3LjUnLCAnLW50JywgJy1tYScsICcyMDAnLCAnLWltYWUnLCAnPGluZmlsZS5tYWU+JywgJy1vbWFlJywgJzxvdXRmaWxlLm1hZT4n

> <r_lp_tautomer_probability>
1

> <r_epik_Ionization_Penalty>
  0.0236

> <r_epik_Ionization_Penalty_Charging>
  0.0065

> <r_epik_Ionization_Penalty_Neutral>
  0.0172

> <r_epik_State_Penalty>
  0.0136

> <r_epik_Charging_Adjusted_Penalty>
0.0200643839782608

> <i_epik_Tot_Q>
0

> <i_epik_Tot_abs_Q>
0

> <s_lp_Force_Field>
OPLS3e

> <r_lp_Energy>
33.45555

> <b_lp_Chiralities_Consistent>
1

> <s_lp_Variant>
sdf/inactives_sanitized.sdf:191-1

$$$$
sdf/inactives_sanitized.sdf:192
                    3D
 Schrodinger Suite 2020-1.
 47 50  0  0  1  0            999 V2000
   -1.4324    1.9376    1.0372 N   0  0  0  0  0  0
   -0.8983    3.5598   -0.3429 C   0  0  0  0  0  0
   -0.9228    4.8492   -0.8884 C   0  0  0  0  0  0
   -2.5209    4.2146    1.3906 C   0  0  0  0  0  0
   -2.5302    5.4994    0.8304 C   0  0  0  0  0  0
   -1.7428    5.8154   -0.2941 C   0  0  0  0  0  0
   -1.6983    3.2634    0.7850 C   0  0  0  0  0  0
   -0.5185    1.5165    0.0989 C   0  0  0  0  0  0
   -0.1827    2.4623   -0.7456 N   0  0  0  0  0  0
    0.0053    0.0932    0.0570 C   0  0  0  0  0  0
    1.5456    0.0232   -0.0201 C   0  0  0  0  0  0
    2.0696   -1.3382   -0.1176 N   0  0  0  0  0  0
    2.1155   -2.2294    0.8901 C   0  0  0  0  0  0
    2.6857   -3.5835    0.5453 C   0  0  0  0  0  0
    1.6824   -2.0026    2.0214 O   0  0  0  0  0  0
    1.9793   -4.7239    0.9500 C   0  0  0  0  0  0
    2.4613   -6.0022    0.6777 C   0  0  0  0  0  0
    3.6778   -6.1723    0.0053 C   0  0  0  0  0  0
    4.4012   -5.0377   -0.3807 C   0  0  0  0  0  0
    3.9244   -3.7526   -0.1118 C   0  0  0  0  0  0
   -1.7654    7.2132   -0.9000 C   0  0  0  0  0  0
   -3.4173    6.5545    1.4795 C   0  0  0  0  0  0
    4.9319   -2.4226   -0.5864 Cl  0  0  0  0  0  0
    4.1811   -7.4673   -0.2747 N   0  0  0  0  0  0
    3.4020   -8.5603   -0.2893 N   0  0  0  0  0  0
    4.2608   -9.5113   -0.5848 C   0  0  0  0  0  0
    5.5216   -9.1563   -0.7620 N   0  0  0  0  0  0
    5.4643   -7.8650   -0.5642 C   0  0  0  0  0  0
   -1.8035    1.3411    1.7625 H   0  0  0  0  0  0
   -0.3189    5.0897   -1.7515 H   0  0  0  0  0  0
   -3.1241    3.9702    2.2530 H   0  0  0  0  0  0
   -0.3333   -0.4547    0.9376 H   0  0  0  0  0  0
   -0.4255   -0.4272   -0.7994 H   0  0  0  0  0  0
    1.8935    0.5663   -0.8999 H   0  0  0  0  0  0
    1.9925    0.5347    0.8351 H   0  0  0  0  0  0
    2.4473   -1.6082   -1.0143 H   0  0  0  0  0  0
    1.0385   -4.6292    1.4746 H   0  0  0  0  0  0
    1.8820   -6.8550    1.0011 H   0  0  0  0  0  0
    5.3463   -5.1409   -0.8933 H   0  0  0  0  0  0
   -2.7888    7.5104   -1.1311 H   0  0  0  0  0  0
   -1.1907    7.2736   -1.8254 H   0  0  0  0  0  0
   -1.3617    7.9404   -0.1947 H   0  0  0  0  0  0
   -4.1968    6.8734    0.7869 H   0  0  0  0  0  0
   -2.8305    7.4352    1.7424 H   0  0  0  0  0  0
   -3.8948    6.1930    2.3913 H   0  0  0  0  0  0
    3.9486  -10.5414   -0.6775 H   0  0  0  0  0  0
    6.2817   -7.1603   -0.6000 H   0  0  0  0  0  0
  1  7  1  0  0  0
  1  8  1  0  0  0
  1 29  1  0  0  0
  2  3  2  0  0  0
  2  7  1  0  0  0
  2  9  1  0  0  0
  3  6  1  0  0  0
  3 30  1  0  0  0
  4  7  2  0  0  0
  4  5  1  0  0  0
  4 31  1  0  0  0
  5  6  2  0  0  0
  5 22  1  0  0  0
  6 21  1  0  0  0
  8  9  2  0  0  0
  8 10  1  0  0  0
 10 11  1  0  0  0
 10 32  1  0  0  0
 10 33  1  0  0  0
 11 12  1  0  0  0
 11 34  1  0  0  0
 11 35  1  0  0  0
 12 13  1  0  0  0
 12 36  1  0  0  0
 13 14  1  0  0  0
 13 15  2  0  0  0
 14 16  2  0  0  0
 14 20  1  0  0  0
 16 17  1  0  0  0
 16 37  1  0  0  0
 17 18  2  0  0  0
 17 38  1  0  0  0
 18 19  1  0  0  0
 18 24  1  0  0  0
 19 20  2  0  0  0
 19 39  1  0  0  0
 20 23  1  0  0  0
 21 40  1  0  0  0
 21 41  1  0  0  0
 21 42  1  0  0  0
 22 43  1  0  0  0
 22 44  1  0  0  0
 22 45  1  0  0  0
 24 25  1  0  0  0
 24 28  1  0  0  0
 25 26  2  0  0  0
 26 27  1  0  0  0
 26 46  1  0  0  0
 27 28  2  0  0  0
 28 47  1  0  0  0
M  END
> <chembl_id>
CHEMBL3423041

> <chembl_pref_name>
None

> <s_m_source_file>
sdf/inactives_sanitized.sdf

> <i_m_source_file_index>
192

> <i_lp_mmshare_version>
49012

> <i_m_ct_stereo_status>
1

> <i_f3d_flags>
0

> <s_epik_input>
W2NIXTFjKFtDSDNdKWMoW0NIM10pW2NIXWMoYzEyKVtuSF1jKG4yKVtDSDJdW0NIMl1bTkhdQyg9TyljM1tjSF1bY0hdYyhbY0hdYzNDbCktbjRuW2NIXW5bY0hdNA==

> <s_epik_cmdline>
J2VwaWtfcHl0aG9uJywgJy1waHQnLCAnMC41JywgJy1waCcsICc3LjUnLCAnLW50JywgJy1tYScsICcyMDAnLCAnLWltYWUnLCAnPGluZmlsZS5tYWU+JywgJy1vbWFlJywgJzxvdXRmaWxlLm1hZT4n

> <r_lp_tautomer_probability>
1

> <r_epik_Ionization_Penalty>
  0.0235

> <r_epik_Ionization_Penalty_Charging>
  0.0000

> <r_epik_Ionization_Penalty_Neutral>
  0.0235

> <r_epik_State_Penalty>
  0.0190

> <r_epik_Charging_Adjusted_Penalty>
0.0189995681741242

> <i_epik_Tot_Q>
0

> <i_epik_Tot_abs_Q>
0

> <s_lp_Force_Field>
OPLS3e

> <r_lp_Energy>
27.888846

> <b_lp_Chiralities_Consistent>
1

> <s_lp_Variant>
sdf/inactives_sanitized.sdf:192-1

$$$$
sdf/inactives_sanitized.sdf:193
                    3D
 Schrodinger Suite 2020-1.
 44 47  0  0  1  0            999 V2000
   -1.2655    1.8844   -0.8701 N   0  0  0  0  0  0
   -0.8775    3.3263    0.8799 C   0  0  0  0  0  0
   -0.8923    4.5488    1.5568 C   0  0  0  0  0  0
   -1.9689    4.2782   -1.0796 C   0  0  0  0  0  0
   -1.9850    5.5014   -0.4082 C   0  0  0  0  0  0
   -1.4624    5.6360    0.8827 C   0  0  0  0  0  0
   -1.4058    3.1734   -0.4266 C   0  0  0  0  0  0
   -0.6684    1.2581    0.1144 C   0  0  0  0  0  0
   -0.4158    2.0699    1.1960 N   0  0  0  0  0  0
   -0.2333   -0.1943    0.0614 C   0  0  0  0  0  0
    1.2890   -0.3812   -0.1268 C   0  0  0  0  0  0
    1.8265    0.3057   -1.3053 N   0  0  0  0  0  0
    2.3829    1.5343   -1.3146 C   0  0  0  0  0  0
    2.7931    2.0857   -2.6646 C   0  0  0  0  0  0
    2.5549    2.1944   -0.2872 O   0  0  0  0  0  0
    2.3691    1.4892   -3.8632 C   0  0  0  0  0  0
    2.7446    2.0230   -5.0927 C   0  0  0  0  0  0
    3.5500    3.1643   -5.1434 C   0  0  0  0  0  0
    3.9774    3.7666   -3.9565 C   0  0  0  0  0  0
    3.5994    3.2308   -2.7290 C   0  0  0  0  0  0
    3.9290    3.7089   -6.3894 N   0  0  0  0  0  0
    4.0862    3.0714   -7.6009 C   0  0  0  0  0  0
    4.4499    3.8964   -8.5506 N   0  0  0  0  0  0
    4.5463    5.1570   -7.9704 N   0  0  0  0  0  0
    4.2359    5.0144   -6.7063 C   0  0  0  0  0  0
   -1.4920    6.9948    1.5591 C   0  0  0  0  0  0
   -0.4826    4.6531    2.5508 H   0  0  0  0  0  0
   -2.3767    4.1906   -2.0759 H   0  0  0  0  0  0
   -2.4139    6.3605   -0.9040 H   0  0  0  0  0  0
   -0.5416   -0.7065    0.9735 H   0  0  0  0  0  0
   -0.7535   -0.7183   -0.7422 H   0  0  0  0  0  0
    1.8127   -0.0525    0.7736 H   0  0  0  0  0  0
    1.5124   -1.4433   -0.2328 H   0  0  0  0  0  0
    1.7771   -0.2021   -2.1761 H   0  0  0  0  0  0
    1.7367    0.6132   -3.8615 H   0  0  0  0  0  0
    2.3945    1.5484   -5.9978 H   0  0  0  0  0  0
    4.6052    4.6455   -3.9724 H   0  0  0  0  0  0
    3.9441    3.7178   -1.8274 H   0  0  0  0  0  0
    3.9227    2.0081   -7.6952 H   0  0  0  0  0  0
    4.1984    5.7920   -5.9576 H   0  0  0  0  0  0
   -1.4222    7.7991    0.8254 H   0  0  0  0  0  0
   -0.6435    7.1153    2.2339 H   0  0  0  0  0  0
   -2.4130    7.1193    2.1289 H   0  0  0  0  0  0
    0.0471    1.7545    2.0360 H   0  0  0  0  0  0
  1  7  1  0  0  0
  1  8  2  0  0  0
  2  3  2  0  0  0
  2  7  1  0  0  0
  2  9  1  0  0  0
  3  6  1  0  0  0
  3 27  1  0  0  0
  4  7  2  0  0  0
  4  5  1  0  0  0
  4 28  1  0  0  0
  5  6  2  0  0  0
  5 29  1  0  0  0
  6 26  1  0  0  0
  8  9  1  0  0  0
  8 10  1  0  0  0
  9 44  1  0  0  0
 10 11  1  0  0  0
 10 30  1  0  0  0
 10 31  1  0  0  0
 11 12  1  0  0  0
 11 32  1  0  0  0
 11 33  1  0  0  0
 12 13  1  0  0  0
 12 34  1  0  0  0
 13 14  1  0  0  0
 13 15  2  0  0  0
 14 16  2  0  0  0
 14 20  1  0  0  0
 16 17  1  0  0  0
 16 35  1  0  0  0
 17 18  2  0  0  0
 17 36  1  0  0  0
 18 19  1  0  0  0
 18 21  1  0  0  0
 19 20  2  0  0  0
 19 37  1  0  0  0
 20 38  1  0  0  0
 21 22  1  0  0  0
 21 25  1  0  0  0
 22 23  2  0  0  0
 22 39  1  0  0  0
 23 24  1  0  0  0
 24 25  2  0  0  0
 25 40  1  0  0  0
 26 41  1  0  0  0
 26 42  1  0  0  0
 26 43  1  0  0  0
M  END
> <chembl_id>
CHEMBL3423026

> <chembl_pref_name>
None

> <s_m_source_file>
sdf/inactives_sanitized.sdf

> <i_m_source_file_index>
193

> <i_lp_mmshare_version>
49012

> <i_m_ct_stereo_status>
1

> <i_f3d_flags>
0

> <s_epik_input>
W2NIXTFjKFtDSDNdKVtjSF1bY0hdYyhjMTIpW25IXWMobjIpW0NIMl1bQ0gyXVtOSF1DKD1PKWMzW2NIXVtjSF1jKFtjSF1bY0hdMyktbjRbY0hdbm5bY0hdNA==

> <s_epik_cmdline>
J2VwaWtfcHl0aG9uJywgJy1waHQnLCAnMC41JywgJy1waCcsICc3LjUnLCAnLW50JywgJy1tYScsICcyMDAnLCAnLWltYWUnLCAnPGluZmlsZS5tYWU+JywgJy1vbWFlJywgJzxvdXRmaWxlLm1hZT4n

> <r_lp_tautomer_probability>
1

> <r_epik_Ionization_Penalty>
  0.0324

> <r_epik_Ionization_Penalty_Charging>
  0.0000

> <r_epik_Ionization_Penalty_Neutral>
  0.0324

> <r_epik_State_Penalty>
  0.3703

> <r_epik_Charging_Adjusted_Penalty>
0.370341059032721

> <i_epik_Tot_Q>
0

> <i_epik_Tot_abs_Q>
0

> <s_lp_Force_Field>
OPLS3e

> <r_lp_Energy>
20.253508

> <b_lp_Chiralities_Consistent>
1

> <s_lp_Variant>
sdf/inactives_sanitized.sdf:193-1

$$$$
sdf/inactives_sanitized.sdf:193
                    3D
 Schrodinger Suite 2020-1.
 44 47  0  0  1  0            999 V2000
   -0.3542    2.1366    1.2306 N   0  0  0  0  0  0
   -1.2447    3.3290   -0.3872 C   0  0  0  0  0  0
   -1.7304    4.4775   -1.0280 C   0  0  0  0  0  0
   -0.7074    4.6287    1.6391 C   0  0  0  0  0  0
   -1.1971    5.7545    0.9720 C   0  0  0  0  0  0
   -1.6945    5.6912   -0.3341 C   0  0  0  0  0  0
   -0.7406    3.4230    0.9344 C   0  0  0  0  0  0
   -0.6265    1.3643    0.1252 C   0  0  0  0  0  0
   -1.1660    2.0441   -0.8570 N   0  0  0  0  0  0
   -0.2681   -0.1077    0.0472 C   0  0  0  0  0  0
    1.2393   -0.3684   -0.1710 C   0  0  0  0  0  0
    1.7878    0.2958   -1.3575 N   0  0  0  0  0  0
    2.3995    1.4980   -1.3757 C   0  0  0  0  0  0
    2.8126    2.0335   -2.7322 C   0  0  0  0  0  0
    2.6129    2.1494   -0.3504 O   0  0  0  0  0  0
    2.4308    1.3963   -3.9245 C   0  0  0  0  0  0
    2.8099    1.9148   -5.1593 C   0  0  0  0  0  0
    3.5763    3.0819   -5.2227 C   0  0  0  0  0  0
    3.9619    3.7248   -4.0433 C   0  0  0  0  0  0
    3.5818    3.2034   -2.8102 C   0  0  0  0  0  0
    3.9571    3.6114   -6.4743 N   0  0  0  0  0  0
    4.1659    2.9519   -7.6660 C   0  0  0  0  0  0
    4.5130    3.7686   -8.6290 N   0  0  0  0  0  0
    4.5431    5.0460   -8.0791 N   0  0  0  0  0  0
    4.2148    4.9208   -6.8176 C   0  0  0  0  0  0
   -2.2207    6.9494   -1.0011 C   0  0  0  0  0  0
    0.0717    1.7776    2.0725 H   0  0  0  0  0  0
   -2.1177    4.4260   -2.0352 H   0  0  0  0  0  0
   -0.3218    4.6964    2.6455 H   0  0  0  0  0  0
   -1.1849    6.7039    1.4880 H   0  0  0  0  0  0
   -0.5866   -0.6156    0.9583 H   0  0  0  0  0  0
   -0.8287   -0.5934   -0.7531 H   0  0  0  0  0  0
    1.7960   -0.0694    0.7199 H   0  0  0  0  0  0
    1.4079   -1.4397   -0.2840 H   0  0  0  0  0  0
    1.6952   -0.2055   -2.2287 H   0  0  0  0  0  0
    1.8296    0.4987   -3.9150 H   0  0  0  0  0  0
    2.4928    1.4080   -6.0592 H   0  0  0  0  0  0
    4.5596    4.6245   -4.0692 H   0  0  0  0  0  0
    3.8942    3.7229   -1.9151 H   0  0  0  0  0  0
    4.0505    1.8805   -7.7363 H   0  0  0  0  0  0
    4.1300    5.7139   -6.0892 H   0  0  0  0  0  0
   -2.6029    7.6567   -0.2640 H   0  0  0  0  0  0
   -3.0505    6.7166   -1.6696 H   0  0  0  0  0  0
   -1.4338    7.4339   -1.5796 H   0  0  0  0  0  0
  1  7  1  0  0  0
  1  8  1  0  0  0
  1 27  1  0  0  0
  2  3  2  0  0  0
  2  7  1  0  0  0
  2  9  1  0  0  0
  3  6  1  0  0  0
  3 28  1  0  0  0
  4  7  2  0  0  0
  4  5  1  0  0  0
  4 29  1  0  0  0
  5  6  2  0  0  0
  5 30  1  0  0  0
  6 26  1  0  0  0
  8  9  2  0  0  0
  8 10  1  0  0  0
 10 11  1  0  0  0
 10 31  1  0  0  0
 10 32  1  0  0  0
 11 12  1  0  0  0
 11 33  1  0  0  0
 11 34  1  0  0  0
 12 13  1  0  0  0
 12 35  1  0  0  0
 13 14  1  0  0  0
 13 15  2  0  0  0
 14 16  2  0  0  0
 14 20  1  0  0  0
 16 17  1  0  0  0
 16 36  1  0  0  0
 17 18  2  0  0  0
 17 37  1  0  0  0
 18 19  1  0  0  0
 18 21  1  0  0  0
 19 20  2  0  0  0
 19 38  1  0  0  0
 20 39  1  0  0  0
 21 22  1  0  0  0
 21 25  1  0  0  0
 22 23  2  0  0  0
 22 40  1  0  0  0
 23 24  1  0  0  0
 24 25  2  0  0  0
 25 41  1  0  0  0
 26 42  1  0  0  0
 26 43  1  0  0  0
 26 44  1  0  0  0
M  END
> <chembl_id>
CHEMBL3423026

> <chembl_pref_name>
None

> <s_m_source_file>
sdf/inactives_sanitized.sdf

> <i_m_source_file_index>
193

> <i_lp_mmshare_version>
49012

> <i_m_ct_stereo_status>
1

> <i_f3d_flags>
0

> <s_epik_input>
W2NIXTFjKFtDSDNdKVtjSF1bY0hdYyhjMTIpW25IXWMobjIpW0NIMl1bQ0gyXVtOSF1DKD1PKWMzW2NIXVtjSF1jKFtjSF1bY0hdMyktbjRbY0hdbm5bY0hdNA==

> <s_epik_cmdline>
J2VwaWtfcHl0aG9uJywgJy1waHQnLCAnMC41JywgJy1waCcsICc3LjUnLCAnLW50JywgJy1tYScsICcyMDAnLCAnLWltYWUnLCAnPGluZmlsZS5tYWU+JywgJy1vbWFlJywgJzxvdXRmaWxlLm1hZT4n

> <r_epik_Ionization_Penalty>
  0.0387

> <r_epik_Ionization_Penalty_Charging>
  0.0000

> <r_epik_Ionization_Penalty_Neutral>
  0.0387

> <r_epik_State_Penalty>
  0.4865

> <r_epik_Charging_Adjusted_Penalty>
0.486461840061288

> <i_epik_Tot_Q>
0

> <i_epik_Tot_abs_Q>
0

> <s_lp_Force_Field>
OPLS3e

> <r_lp_Energy>
20.581685

> <b_lp_Chiralities_Consistent>
1

> <s_lp_Variant>
sdf/inactives_sanitized.sdf:193-2

$$$$
sdf/inactives_sanitized.sdf:194
                    3D
 Schrodinger Suite 2020-1.
 58 61  0  0  1  0            999 V2000
   -0.8219   -0.4135   -1.2712 C   0  0  0  0  0  0
   -0.1627    0.3352   -0.0777 C   0  0  0  0  0  0
   -0.7635   -0.2682    1.2168 C   0  0  0  0  0  0
    8.6016   -2.1733    0.6859 N   0  0  0  0  0  0
    9.7344   -0.3671    0.4957 C   0  0  0  0  0  0
    9.8445   -1.6678    0.6851 N   0  0  0  0  0  0
    8.3719   -0.0111    0.3969 C   0  0  0  0  0  0
    7.6447   -1.1932    0.4967 C   0  0  0  0  0  0
    6.1942   -1.3264    0.4889 C   0  0  0  0  0  0
    5.5778   -0.1335    0.1773 N   0  0  0  0  0  0
    6.2830    0.9775   -0.5137 C   0  0  0  0  0  0
    7.6414    1.2921    0.1580 C   0  0  0  0  0  0
    4.1753   -0.0529    0.1070 C   0  0  0  0  0  0
    3.4968    0.7378    1.0342 C   0  0  0  0  0  0
    2.1112    0.8467    0.9657 C   0  0  0  0  0  0
    1.3821    0.1827   -0.0332 C   0  0  0  0  0  0
    2.0827   -0.6033   -0.9631 C   0  0  0  0  0  0
    3.4679   -0.7203   -0.8971 C   0  0  0  0  0  0
    8.4468   -3.5691    0.8409 C   0  0  0  0  0  0
    9.0251   -4.2176    1.9363 C   0  0  0  0  0  0
    8.8722   -5.5928    2.0853 C   0  0  0  0  0  0
    8.1501   -6.3339    1.1487 C   0  0  0  0  0  0
    7.5801   -5.6777    0.0458 C   0  0  0  0  0  0
    7.7299   -4.3023   -0.1082 C   0  0  0  0  0  0
    8.0493   -7.6918    1.3844 O   0  0  0  0  0  0
    7.3167   -8.5028    0.4722 C   0  0  0  0  0  0
   10.8526    0.5554    0.4228 C   0  0  0  0  0  0
   12.0707    0.0073    0.5156 N   0  0  0  0  0  0
   10.6980    1.7673    0.2845 O   0  0  0  0  0  0
   -0.5707    1.8382   -0.1612 C   0  0  0  0  0  0
   -0.0401    2.4884   -1.3020 O   0  0  0  0  0  0
    5.5596   -2.3404    0.7917 O   0  0  0  0  0  0
   -1.9039   -0.2746   -1.2822 H   0  0  0  0  0  0
   -0.6437   -1.4889   -1.2249 H   0  0  0  0  0  0
   -0.4484   -0.0575   -2.2325 H   0  0  0  0  0  0
   -1.8526   -0.2026    1.2237 H   0  0  0  0  0  0
   -0.4109    0.2453    2.1119 H   0  0  0  0  0  0
   -0.5028   -1.3223    1.3243 H   0  0  0  0  0  0
    6.4298    0.6984   -1.5583 H   0  0  0  0  0  0
    5.6690    1.8797   -0.5117 H   0  0  0  0  0  0
    7.4859    1.8224    1.0981 H   0  0  0  0  0  0
    8.2078    1.9718   -0.4782 H   0  0  0  0  0  0
    4.0375    1.2634    1.8083 H   0  0  0  0  0  0
    1.6068    1.4567    1.6999 H   0  0  0  0  0  0
    1.5745   -1.1348   -1.7522 H   0  0  0  0  0  0
    3.9880   -1.3255   -1.6257 H   0  0  0  0  0  0
    9.5852   -3.6616    2.6746 H   0  0  0  0  0  0
    9.3166   -6.0879    2.9365 H   0  0  0  0  0  0
    7.0181   -6.2178   -0.7009 H   0  0  0  0  0  0
    7.2869   -3.8120   -0.9634 H   0  0  0  0  0  0
    7.3333   -9.5367    0.8166 H   0  0  0  0  0  0
    7.7583   -8.4807   -0.5252 H   0  0  0  0  0  0
    6.2723   -8.1927    0.4096 H   0  0  0  0  0  0
   12.1719   -0.9902    0.6342 H   0  0  0  0  0  0
   12.8939    0.5900    0.4721 H   0  0  0  0  0  0
   -1.6560    1.9494   -0.1786 H   0  0  0  0  0  0
   -0.2232    2.3919    0.7113 H   0  0  0  0  0  0
   -0.3116    3.4089   -1.2831 H   0  0  0  0  0  0
  1  2  1  0  0  0
  1 33  1  0  0  0
  1 34  1  0  0  0
  1 35  1  0  0  0
  2  3  1  0  0  0
  2 16  1  0  0  0
  2 30  1  0  0  0
  3 36  1  0  0  0
  3 37  1  0  0  0
  3 38  1  0  0  0
  4  8  1  0  0  0
  4  6  1  0  0  0
  4 19  1  0  0  0
  5  7  1  0  0  0
  5  6  2  0  0  0
  5 27  1  0  0  0
  7  8  2  0  0  0
  7 12  1  0  0  0
  8  9  1  0  0  0
  9 10  1  0  0  0
  9 32  2  0  0  0
 10 11  1  0  0  0
 10 13  1  0  0  0
 11 12  1  0  0  0
 11 39  1  0  0  0
 11 40  1  0  0  0
 12 41  1  0  0  0
 12 42  1  0  0  0
 13 14  2  0  0  0
 13 18  1  0  0  0
 14 15  1  0  0  0
 14 43  1  0  0  0
 15 16  2  0  0  0
 15 44  1  0  0  0
 16 17  1  0  0  0
 17 18  2  0  0  0
 17 45  1  0  0  0
 18 46  1  0  0  0
 19 20  2  0  0  0
 19 24  1  0  0  0
 20 21  1  0  0  0
 20 47  1  0  0  0
 21 22  2  0  0  0
 21 48  1  0  0  0
 22 23  1  0  0  0
 22 25  1  0  0  0
 23 24  2  0  0  0
 23 49  1  0  0  0
 24 50  1  0  0  0
 25 26  1  0  0  0
 26 51  1  0  0  0
 26 52  1  0  0  0
 26 53  1  0  0  0
 27 28  1  0  0  0
 27 29  2  0  0  0
 28 54  1  0  0  0
 28 55  1  0  0  0
 30 31  1  0  0  0
 30 56  1  0  0  0
 30 57  1  0  0  0
 31 58  1  0  0  0
M  END
> <chembl_id>
CHEMBL3314440

> <chembl_pref_name>
None

> <s_m_source_file>
sdf/inactives_sanitized.sdf

> <i_m_source_file_index>
194

> <i_lp_mmshare_version>
49012

> <i_m_ct_stereo_status>
1

> <i_f3d_flags>
0

> <s_epik_input>
W09IXVtDSDJdQyhbQ0gzXSkoW0NIM10pYyhbY0hdW2NIXTEpW2NIXVtjSF1jMU4oW0NIMl1bQ0gyXTIpQyg9TyljKGMyMyluKG5jM0MoPU8pW05IMl0pLWM0W2NIXVtjSF1jKFtjSF1bY0hdNClPW0NIM10=

> <s_epik_cmdline>
J2VwaWtfcHl0aG9uJywgJy1waHQnLCAnMC41JywgJy1waCcsICc3LjUnLCAnLW50JywgJy1tYScsICcyMDAnLCAnLWltYWUnLCAnPGluZmlsZS5tYWU+JywgJy1vbWFlJywgJzxvdXRmaWxlLm1hZT4n

> <r_lp_tautomer_probability>
1

> <r_epik_Ionization_Penalty>
  0.0000

> <r_epik_Ionization_Penalty_Charging>
  0.0000

> <r_epik_Ionization_Penalty_Neutral>
  0.0000

> <r_epik_State_Penalty>
 -0.0000

> <r_epik_Charging_Adjusted_Penalty>
0

> <i_epik_Tot_Q>
0

> <i_epik_Tot_abs_Q>
0

> <s_lp_Force_Field>
OPLS3e

> <r_lp_Energy>
53.810332

> <b_lp_Chiralities_Consistent>
1

> <s_lp_Variant>
sdf/inactives_sanitized.sdf:194-1

$$$$
sdf/inactives_sanitized.sdf:195
                    3D
 Schrodinger Suite 2020-1.
 76 81  0  0  1  0            999 V2000
   -9.6690   -0.2145   -0.5082 C   0  0  0  0  0  0
   -8.5241   -0.7260    0.3904 C   0  0  2  0  0  0
   -7.2133   -0.9615   -0.4175 C   0  0  0  0  0  0
   -6.4669    0.3285   -0.8509 C   0  0  0  0  0  0
   -4.9182    0.2081   -0.8694 C   0  0  0  0  0  0
   -4.1958    0.5046    0.4847 C   0  0  2  0  0  0
   -2.7151    0.4728    0.3824 N   0  0  0  0  0  0
   -2.0579   -0.5979   -0.4273 C   0  0  0  0  0  0
   -0.6069   -0.9111    0.0291 C   0  0  0  0  0  0
    0.1240    0.3951    0.2612 C   0  0  0  0  0  0
   -0.5607    1.4219    0.7972 C   0  0  0  0  0  0
   -1.9824    1.4140    1.0648 C   0  0  0  0  0  0
   -2.4632    2.2187    1.8649 O   0  0  0  0  0  0
    1.5989    0.4394    0.2048 C   0  0  0  0  0  0
    2.3417    0.1115    1.3502 C   0  0  0  0  0  0
    1.7055   -0.2340    2.4962 F   0  0  0  0  0  0
    3.7382    0.1366    1.3202 C   0  0  0  0  0  0
    4.6552   -0.2657    2.7284 Cl  0  0  0  0  0  0
    4.4024    0.4873    0.1475 C   0  0  0  0  0  0
    3.6753    0.8098   -0.9952 C   0  0  0  0  0  0
    2.2765    0.7852   -0.9820 C   0  0  0  0  0  0
    1.5717    1.1603   -2.2456 C   0  0  0  0  0  0
    0.6313    0.4176   -2.9432 C   0  0  0  0  0  0
    0.2822    1.1709   -4.0282 N   0  0  0  0  0  0
   -0.6874    0.8560   -5.0620 C   0  0  0  0  0  0
    0.9279    2.3395   -4.0648 N   0  0  0  0  0  0
    1.7074    2.3447   -3.0030 C   0  0  0  0  0  0
    2.5803    3.5532   -2.7427 C   0  0  0  0  0  0
   -4.7476   -0.3444    1.6338 C   0  0  0  0  0  0
   -5.8578    0.1115    2.3469 C   0  0  0  0  0  0
   -6.5277   -0.7677    3.2014 C   0  0  0  0  0  0
   -5.9804   -2.0383    3.4176 C   0  0  0  0  0  0
   -4.8092   -2.3905    2.7432 C   0  0  0  0  0  0
   -4.2012   -1.5737    1.8453 N   0  0  0  0  0  0
   -7.8348   -0.3658    3.7772 C   0  0  0  0  0  0
   -7.8727    0.6878    4.6994 C   0  0  0  0  0  0
   -9.0790    1.1158    5.2510 C   0  0  0  0  0  0
  -10.2706    0.4957    4.8847 C   0  0  0  0  0  0
  -10.2568   -0.5480    3.9620 C   0  0  0  0  0  0
   -9.0523   -0.9731    3.3922 C   0  0  0  0  0  0
   -9.1275   -2.0431    2.4859 N   0  0  0  0  0  0
   -8.9443   -2.0154    1.1459 C   0  0  0  0  0  0
   -9.1158   -3.0465    0.4969 O   0  0  0  0  0  0
  -10.5716   -0.0147    0.0715 H   0  0  0  0  0  0
   -9.9310   -0.9363   -1.2835 H   0  0  0  0  0  0
   -9.3940    0.7166   -1.0046 H   0  0  0  0  0  0
   -8.3331    0.0597    1.1179 H   0  0  0  0  0  0
   -6.5381   -1.5820    0.1707 H   0  0  0  0  0  0
   -7.4213   -1.5698   -1.2998 H   0  0  0  0  0  0
   -6.8147    0.6000   -1.8486 H   0  0  0  0  0  0
   -6.7486    1.1723   -0.2201 H   0  0  0  0  0  0
   -4.6440   -0.7735   -1.2569 H   0  0  0  0  0  0
   -4.5422    0.9233   -1.6028 H   0  0  0  0  0  0
   -4.4773    1.5335    0.7190 H   0  0  0  0  0  0
   -2.6858   -1.4830   -0.5277 H   0  0  0  0  0  0
   -1.9845   -0.1897   -1.4362 H   0  0  0  0  0  0
   -0.6586   -1.4587    0.9714 H   0  0  0  0  0  0
   -0.0927   -1.5484   -0.6902 H   0  0  0  0  0  0
   -0.0219    2.3179    1.0732 H   0  0  0  0  0  0
    5.4821    0.5096    0.1197 H   0  0  0  0  0  0
    4.2072    1.0788   -1.8967 H   0  0  0  0  0  0
    0.1929   -0.5544   -2.7744 H   0  0  0  0  0  0
   -1.0266   -0.1748   -4.9525 H   0  0  0  0  0  0
   -0.2296    0.9777   -6.0449 H   0  0  0  0  0  0
   -1.5433    1.5262   -4.9721 H   0  0  0  0  0  0
    3.0509    3.5206   -1.7602 H   0  0  0  0  0  0
    2.0095    4.4816   -2.7841 H   0  0  0  0  0  0
    3.3810    3.6345   -3.4781 H   0  0  0  0  0  0
   -6.2723    1.0882    2.1421 H   0  0  0  0  0  0
   -6.4628   -2.7440    4.0780 H   0  0  0  0  0  0
   -4.3626   -3.3631    2.8876 H   0  0  0  0  0  0
   -6.9569    1.1797    4.9954 H   0  0  0  0  0  0
   -9.0883    1.9273    5.9637 H   0  0  0  0  0  0
  -11.2055    0.8237    5.3149 H   0  0  0  0  0  0
  -11.1896   -1.0195    3.6868 H   0  0  0  0  0  0
   -9.4686   -2.9103    2.8742 H   0  0  0  0  0  0
  1  2  1  0  0  0
  1 44  1  0  0  0
  1 45  1  0  0  0
  1 46  1  0  0  0
  2  3  1  0  0  0
  2 42  1  0  0  0
  2 47  1  0  0  0
  3  4  1  0  0  0
  3 48  1  0  0  0
  3 49  1  0  0  0
  4  5  1  0  0  0
  4 50  1  0  0  0
  4 51  1  0  0  0
  5  6  1  0  0  0
  5 52  1  0  0  0
  5 53  1  0  0  0
  6  7  1  0  0  0
  6 29  1  0  0  0
  6 54  1  0  0  0
  7  8  1  0  0  0
  7 12  1  0  0  0
  8  9  1  0  0  0
  8 55  1  0  0  0
  8 56  1  0  0  0
  9 10  1  0  0  0
  9 57  1  0  0  0
  9 58  1  0  0  0
 10 11  2  0  0  0
 10 14  1  0  0  0
 11 12  1  0  0  0
 11 59  1  0  0  0
 12 13  2  0  0  0
 14 15  2  0  0  0
 14 21  1  0  0  0
 15 16  1  0  0  0
 15 17  1  0  0  0
 17 18  1  0  0  0
 17 19  2  0  0  0
 19 20  1  0  0  0
 19 60  1  0  0  0
 20 21  2  0  0  0
 20 61  1  0  0  0
 21 22  1  0  0  0
 22 23  2  0  0  0
 22 27  1  0  0  0
 23 24  1  0  0  0
 23 62  1  0  0  0
 24 25  1  0  0  0
 24 26  1  0  0  0
 25 63  1  0  0  0
 25 64  1  0  0  0
 25 65  1  0  0  0
 26 27  2  0  0  0
 27 28  1  0  0  0
 28 66  1  0  0  0
 28 67  1  0  0  0
 28 68  1  0  0  0
 29 30  1  0  0  0
 29 34  2  0  0  0
 30 31  2  0  0  0
 30 69  1  0  0  0
 31 32  1  0  0  0
 31 35  1  0  0  0
 32 33  2  0  0  0
 32 70  1  0  0  0
 33 34  1  0  0  0
 33 71  1  0  0  0
 35 36  2  0  0  0
 35 40  1  0  0  0
 36 37  1  0  0  0
 36 72  1  0  0  0
 37 38  2  0  0  0
 37 73  1  0  0  0
 38 39  1  0  0  0
 38 74  1  0  0  0
 39 40  2  0  0  0
 39 75  1  0  0  0
 40 41  1  0  0  0
 41 42  1  0  0  0
 41 76  1  0  0  0
 42 43  2  0  0  0
M  END
> <chembl_id>
CHEMBL4115676

> <chembl_pref_name>
None

> <i_m_ct_stereo_status>
1

> <s_m_source_file>
sdf/inactives_sanitized.sdf

> <i_m_source_file_index>
195

> <i_lp_mmshare_version>
49012

> <i_f3d_flags>
0

> <s_epik_input>
bjFbY0hdW2NIXWMoW2NIXWMxMiljM2MoW2NIXVtjSF1bY0hdW2NIXTMpW05IXUMoPU8pW0NASF0oW0NIM10pW0NIMl1bQ0gyXVtDSDJdW0NAQEhdMk40W0NIMl1bQ0gyXUMoPVtDSF1DND1PKWM1YyhGKWMoQ2wpW2NIXVtjSF1jNS1jNltjSF1uKFtDSDNdKW5jNltDSDNd

> <s_epik_cmdline>
J2VwaWtfcHl0aG9uJywgJy1waHQnLCAnMC41JywgJy1waCcsICc3LjUnLCAnLW50JywgJy1tYScsICcyMDAnLCAnLWltYWUnLCAnPGluZmlsZS5tYWU+JywgJy1vbWFlJywgJzxvdXRmaWxlLm1hZT4n

> <r_lp_tautomer_probability>
1

> <r_epik_Ionization_Penalty>
  0.0002

> <r_epik_Ionization_Penalty_Charging>
  0.0000

> <r_epik_Ionization_Penalty_Neutral>
  0.0002

> <r_epik_State_Penalty>
 -0.0000

> <r_epik_Charging_Adjusted_Penalty>
0

> <i_epik_Tot_Q>
0

> <i_epik_Tot_abs_Q>
0

> <s_lp_Force_Field>
OPLS3e

> <r_lp_Energy>
94.928701

> <b_lp_Chiralities_Consistent>
1

> <s_lp_Variant>
sdf/inactives_sanitized.sdf:195-1

$$$$
sdf/inactives_sanitized.sdf:196
                    3D
 Schrodinger Suite 2020-1.
 70 74  0  0  1  0            999 V2000
   -3.2459    0.9710    0.1541 C   0  0  0  0  0  0
   -2.0320    0.2477    0.0031 O   0  0  0  0  0  0
   -0.8389    0.8675    0.1068 C   0  0  0  0  0  0
   -0.6983    2.0700    0.3392 O   0  0  0  0  0  0
    0.1622   -0.0766   -0.1014 N   0  0  0  0  0  0
    1.5588    0.0776   -0.0781 C   0  0  0  0  0  0
    2.3102   -1.0382   -0.4487 C   0  0  0  0  0  0
    3.7018   -0.9822   -0.4608 C   0  0  0  0  0  0
    4.3799    0.1878   -0.1031 C   0  0  0  0  0  0
    3.6233    1.3097    0.3024 C   0  0  0  0  0  0
    4.2021    2.5339    0.6750 N   0  0  0  0  0  0
    4.8815    2.8251    1.8081 C   0  0  0  0  0  0
    5.2593    3.9805    1.9990 O   0  0  0  0  0  0
    5.2062    1.7525    2.8825 C   0  0  2  0  0  0
    4.4130    2.0134    4.1792 C   0  0  0  0  0  0
    6.7403    1.6825    3.1426 C   0  0  0  0  0  0
    7.2347    0.3968    3.8579 C   0  0  0  0  0  0
    8.6336   -0.0998    3.3983 C   0  0  0  0  0  0
    8.6317   -1.0658    2.1707 C   0  0  2  0  0  0
    9.9588   -1.6570    1.8544 N   0  0  0  0  0  0
   11.1910   -0.8177    1.9176 C   0  0  0  0  0  0
   12.4792   -1.6666    2.0812 C   0  0  0  0  0  0
   12.4668   -2.8043    1.0703 C   0  0  0  0  0  0
   11.2687   -3.3345    0.7434 C   0  0  0  0  0  0
    9.9859   -2.8906    1.2475 C   0  0  0  0  0  0
    9.0058   -3.6327    1.1541 O   0  0  0  0  0  0
   13.7424   -3.4307    0.6272 C   0  0  0  0  0  0
   14.9010   -3.3494    1.4163 C   0  0  0  0  0  0
   16.0864   -3.9205    1.0816 N   0  0  0  0  0  0
   16.1476   -4.6145   -0.0813 C   0  0  0  0  0  0
   15.0518   -4.7615   -0.9300 C   0  0  0  0  0  0
   15.1886   -5.6585   -2.3981 Cl  0  0  0  0  0  0
   13.8422   -4.1665   -0.5665 C   0  0  0  0  0  0
    7.9282   -0.4414    0.9618 C   0  0  0  0  0  0
    6.5495   -0.6038    0.8170 C   0  0  0  0  0  0
    5.8639    0.1858   -0.1092 C   0  0  0  0  0  0
    6.6046    1.0183   -0.9573 C   0  0  0  0  0  0
    7.9942    1.0552   -0.8194 C   0  0  0  0  0  0
    8.6596    0.3566    0.1361 N   0  0  0  0  0  0
    2.2255    1.2542    0.2963 C   0  0  0  0  0  0
   -4.0947    0.2954    0.0462 H   0  0  0  0  0  0
   -3.3343    1.7508   -0.6039 H   0  0  0  0  0  0
   -3.3058    1.4365    1.1390 H   0  0  0  0  0  0
   -0.1570   -1.0129   -0.3019 H   0  0  0  0  0  0
    1.8211   -1.9589   -0.7344 H   0  0  0  0  0  0
    4.2590   -1.8605   -0.7546 H   0  0  0  0  0  0
    3.9792    3.3133    0.0732 H   0  0  0  0  0  0
    4.8826    0.7804    2.5181 H   0  0  0  0  0  0
    3.3382    2.0290    3.9918 H   0  0  0  0  0  0
    4.6806    2.9686    4.6337 H   0  0  0  0  0  0
    4.5991    1.2337    4.9184 H   0  0  0  0  0  0
    7.2659    1.7851    2.1938 H   0  0  0  0  0  0
    7.0632    2.5554    3.7128 H   0  0  0  0  0  0
    7.2619    0.5971    4.9300 H   0  0  0  0  0  0
    6.5139   -0.4138    3.7444 H   0  0  0  0  0  0
    9.2663    0.7689    3.2160 H   0  0  0  0  0  0
    9.0911   -0.6286    4.2358 H   0  0  0  0  0  0
    7.9976   -1.8952    2.4913 H   0  0  0  0  0  0
   11.2823   -0.3790    0.9226 H   0  0  0  0  0  0
   11.1221    0.0328    2.5922 H   0  0  0  0  0  0
   13.3624   -1.0369    1.9678 H   0  0  0  0  0  0
   12.4994   -2.0800    3.0904 H   0  0  0  0  0  0
   11.2324   -4.1952    0.0919 H   0  0  0  0  0  0
   14.9001   -2.8225    2.3590 H   0  0  0  0  0  0
   17.1011   -5.0593   -0.3262 H   0  0  0  0  0  0
   12.9921   -4.2705   -1.2249 H   0  0  0  0  0  0
    6.0012   -1.2332    1.5032 H   0  0  0  0  0  0
    6.1121    1.6383   -1.6923 H   0  0  0  0  0  0
    8.5935    1.6879   -1.4573 H   0  0  0  0  0  0
    1.6788    2.1330    0.6003 H   0  0  0  0  0  0
  1  2  1  0  0  0
  1 41  1  0  0  0
  1 42  1  0  0  0
  1 43  1  0  0  0
  2  3  1  0  0  0
  3  4  2  0  0  0
  3  5  1  0  0  0
  5  6  1  0  0  0
  5 44  1  0  0  0
  6  7  2  0  0  0
  6 40  1  0  0  0
  7  8  1  0  0  0
  7 45  1  0  0  0
  8  9  2  0  0  0
  8 46  1  0  0  0
  9 10  1  0  0  0
  9 36  1  0  0  0
 10 11  1  0  0  0
 10 40  2  0  0  0
 11 12  1  0  0  0
 11 47  1  0  0  0
 12 13  2  0  0  0
 12 14  1  0  0  0
 14 15  1  0  0  0
 14 16  1  0  0  0
 14 48  1  0  0  0
 15 49  1  0  0  0
 15 50  1  0  0  0
 15 51  1  0  0  0
 16 17  1  0  0  0
 16 52  1  0  0  0
 16 53  1  0  0  0
 17 18  1  0  0  0
 17 54  1  0  0  0
 17 55  1  0  0  0
 18 19  1  0  0  0
 18 56  1  0  0  0
 18 57  1  0  0  0
 19 20  1  0  0  0
 19 34  1  0  0  0
 19 58  1  0  0  0
 20 21  1  0  0  0
 20 25  1  0  0  0
 21 22  1  0  0  0
 21 59  1  0  0  0
 21 60  1  0  0  0
 22 23  1  0  0  0
 22 61  1  0  0  0
 22 62  1  0  0  0
 23 24  2  0  0  0
 23 27  1  0  0  0
 24 25  1  0  0  0
 24 63  1  0  0  0
 25 26  2  0  0  0
 27 28  2  0  0  0
 27 33  1  0  0  0
 28 29  1  0  0  0
 28 64  1  0  0  0
 29 30  2  0  0  0
 30 31  1  0  0  0
 30 65  1  0  0  0
 31 32  1  0  0  0
 31 33  2  0  0  0
 33 66  1  0  0  0
 34 35  1  0  0  0
 34 39  2  0  0  0
 35 36  2  0  0  0
 35 67  1  0  0  0
 36 37  1  0  0  0
 37 38  2  0  0  0
 37 68  1  0  0  0
 38 39  1  0  0  0
 38 69  1  0  0  0
 40 70  1  0  0  0
M  END
> <chembl_id>
CHEMBL4110341

> <chembl_pref_name>
None

> <i_m_ct_stereo_status>
1

> <s_m_source_file>
sdf/inactives_sanitized.sdf

> <i_m_source_file_index>
196

> <i_lp_mmshare_version>
49012

> <i_f3d_flags>
0

> <s_epik_input>
W0NIM11PQyg9TylbTkhdYyhbY0hdW2NIXTEpW2NIXWMoYzEyKVtOSF1DKD1PKVtDQEhdKFtDSDNdKVtDSDJdW0NIMl1bQ0gyXVtDQEBIXShjM1tjSF1jMltjSF1bY0hdbjMpTjRbQ0gyXVtDSDJdQyg9W0NIXUM0PU8pYzVbY0hdbltjSF1jKENsKVtjSF01

> <s_epik_cmdline>
J2VwaWtfcHl0aG9uJywgJy1waHQnLCAnMC41JywgJy1waCcsICc3LjUnLCAnLW50JywgJy1tYScsICcyMDAnLCAnLWltYWUnLCAnPGluZmlsZS5tYWU+JywgJy1vbWFlJywgJzxvdXRmaWxlLm1hZT4n

> <r_lp_tautomer_probability>
1

> <r_epik_Ionization_Penalty>
  0.0001

> <r_epik_Ionization_Penalty_Charging>
  0.0000

> <r_epik_Ionization_Penalty_Neutral>
  0.0001

> <r_epik_State_Penalty>
 -0.0000

> <r_epik_Charging_Adjusted_Penalty>
0

> <i_epik_Tot_Q>
0

> <i_epik_Tot_abs_Q>
0

> <s_epik_Chemistry_Notes>
This compound has an ester and may undergo hydrolysis at high or low pH.

> <s_lp_Force_Field>
OPLS3e

> <r_lp_Energy>
95.113396

> <b_lp_Chiralities_Consistent>
1

> <s_lp_Variant>
sdf/inactives_sanitized.sdf:196-1

$$$$
sdf/inactives_sanitized.sdf:197
                    3D
 Schrodinger Suite 2020-1.
 37 40  0  0  1  0            999 V2000
   -0.9154   -1.1818    0.5381 C   0  0  0  0  0  0
   -2.3051   -1.1357    0.5302 C   0  0  0  0  0  0
   -2.9845    0.0575    0.3056 C   0  0  0  0  0  0
   -0.1510   -0.0263    0.3186 C   0  0  0  0  0  0
   -0.8068    1.2006    0.0886 C   0  0  0  0  0  0
   -2.2321    1.2201    0.0861 C   0  0  0  0  0  0
   -2.8546    2.8339   -0.2148 S   0  0  0  0  0  0
   -1.2237    3.4810   -0.3434 C   0  0  0  0  0  0
   -0.2656    2.4962   -0.1549 C   0  0  0  0  0  0
   -1.0039    4.8246   -0.5821 C   0  0  0  0  0  0
   -1.8361    5.4879   -1.3749 N   0  0  0  0  0  0
    0.0431    5.4079   -0.0127 N   0  3  0  0  0  0
    1.2290    0.0354    0.3045 O   0  0  0  0  0  0
    1.9785   -1.1581    0.5176 C   0  0  0  0  0  0
    3.4625   -0.8565    0.4341 C   0  0  0  0  0  0
    4.3489   -1.8110    0.5284 N   0  0  0  0  0  0
    4.1286    0.7559    0.2191 S   0  0  0  0  0  0
    5.7386    0.0568    0.2589 C   0  0  0  0  0  0
    5.6222   -1.3458    0.4337 C   0  0  0  0  0  0
    6.7763   -2.1423    0.4967 C   0  0  0  0  0  0
    8.0200   -1.5182    0.3837 C   0  0  0  0  0  0
    8.1254   -0.1378    0.2129 C   0  0  0  0  0  0
    6.9922    0.6740    0.1479 C   0  0  0  0  0  0
   -0.4393   -2.1340    0.7183 H   0  0  0  0  0  0
   -2.8667   -2.0426    0.7018 H   0  0  0  0  0  0
   -4.0647    0.0816    0.3028 H   0  0  0  0  0  0
    0.7968    2.6882   -0.1920 H   0  0  0  0  0  0
   -1.6854    6.4696   -1.5549 H   0  0  0  0  0  0
   -2.6178    5.0060   -1.7946 H   0  0  0  0  0  0
    0.6501    4.8702    0.5888 H   0  0  0  0  0  0
    1.7489   -1.5579    1.5070 H   0  0  0  0  0  0
    1.7157   -1.8973   -0.2416 H   0  0  0  0  0  0
    6.7104   -3.2125    0.6281 H   0  0  0  0  0  0
    8.9189   -2.1156    0.4293 H   0  0  0  0  0  0
    9.1042    0.3115    0.1292 H   0  0  0  0  0  0
    7.0829    1.7424    0.0151 H   0  0  0  0  0  0
    0.2231    6.3879   -0.1740 H   0  0  0  0  0  0
  1  2  2  0  0  0
  1  4  1  0  0  0
  1 24  1  0  0  0
  2  3  1  0  0  0
  2 25  1  0  0  0
  3  6  2  0  0  0
  3 26  1  0  0  0
  4 13  1  0  0  0
  4  5  2  0  0  0
  5  9  1  0  0  0
  5  6  1  0  0  0
  6  7  1  0  0  0
  7  8  1  0  0  0
  8  9  2  0  0  0
  8 10  1  0  0  0
  9 27  1  0  0  0
 10 11  1  0  0  0
 10 12  2  0  0  0
 11 28  1  0  0  0
 11 29  1  0  0  0
 12 30  1  0  0  0
 12 37  1  0  0  0
 13 14  1  0  0  0
 14 15  1  0  0  0
 14 31  1  0  0  0
 14 32  1  0  0  0
 15 16  2  0  0  0
 15 17  1  0  0  0
 16 19  1  0  0  0
 17 18  1  0  0  0
 18 19  2  0  0  0
 18 23  1  0  0  0
 19 20  1  0  0  0
 20 21  2  0  0  0
 20 33  1  0  0  0
 21 22  1  0  0  0
 21 34  1  0  0  0
 22 23  2  0  0  0
 22 35  1  0  0  0
 23 36  1  0  0  0
M  CHG  1  12   1
M  END
> <chembl_id>
CHEMBL611376

> <chembl_pref_name>
None

> <s_m_source_file>
sdf/inactives_sanitized.sdf

> <i_m_source_file_index>
197

> <i_lp_mmshare_version>
49012

> <i_m_ct_stereo_status>
1

> <i_f3d_flags>
0

> <s_epik_input>
W0hdL049QyhbTkgyXSlcYyhbY0hdMSlzYyhjMTIpW2NIXVtjSF1bY0hdYzJPW0NIMl1jKHMzKW5jKGMzNClbY0hdW2NIXVtjSF1bY0hdNA==

> <s_epik_cmdline>
J2VwaWtfcHl0aG9uJywgJy1waHQnLCAnMC41JywgJy1waCcsICc3LjUnLCAnLW50JywgJy1tYScsICcyMDAnLCAnLWltYWUnLCAnPGluZmlsZS5tYWU+JywgJy1vbWFlJywgJzxvdXRmaWxlLm1hZT4n

> <r_lp_tautomer_probability>
1

> <r_epik_Ionization_Penalty>
  0.0095

> <r_epik_Ionization_Penalty_Charging>
  0.0095

> <r_epik_Ionization_Penalty_Neutral>
  0.0000

> <r_epik_State_Penalty>
 -0.0000

> <r_epik_Charging_Adjusted_Penalty>
0.00945881282357717

> <i_epik_Tot_Q>
1

> <i_epik_Tot_abs_Q>
1

> <s_epik_Chemistry_Notes>
This compound has an imine and may undergo hydrolysis.

> <s_lp_Force_Field>
OPLS3e

> <r_lp_Energy>
22.370915

> <b_lp_Chiralities_Consistent>
1

> <s_lp_Variant>
sdf/inactives_sanitized.sdf:197-1

$$$$
sdf/inactives_sanitized.sdf:198
                    3D
 Schrodinger Suite 2020-1.
 56 57  0  0  1  0            999 V2000
   -0.3177    1.6008    1.8158 C   0  0  0  0  0  0
   -0.6342    1.2438    0.4993 C   0  0  0  0  0  0
   -1.5324    2.0451   -0.2364 C   0  0  0  0  0  0
   -2.0685    3.1954    0.3548 C   0  0  0  0  0  0
   -1.7378    3.5439    1.6625 C   0  0  0  0  0  0
   -0.8625    2.7456    2.3947 C   0  0  0  0  0  0
   -0.4549    3.1716    4.0166 Cl  0  0  0  0  0  0
   -1.9152    1.7317   -1.6786 C   0  0  0  0  0  0
   -3.0001    0.6574   -1.7945 N   0  3  0  0  0  0
   -0.0220   -0.0426   -0.0635 C   0  0  0  0  0  0
    1.4232   -0.0015   -0.2912 N   0  0  0  0  0  0
    2.0803    0.8637   -1.0874 C   0  0  0  0  0  0
    3.6134    0.6480   -1.1999 C   0  0  1  0  0  0
    1.5220    1.7751   -1.7006 O   0  0  0  0  0  0
    4.0823   -0.7179   -1.5999 N   0  0  0  0  0  0
    3.4866   -1.5057   -2.5543 C   0  0  0  0  0  0
    4.0256   -2.9482   -2.8168 C   0  0  1  0  0  0
    2.4422   -1.1742   -3.1234 O   0  0  0  0  0  0
    3.4963   -4.0486   -1.8163 C   0  0  0  0  0  0
    3.7004   -3.3105   -4.1547 O   0  0  0  0  0  0
    1.9501   -4.1825   -1.8596 C   0  0  0  0  0  0
    3.9108   -3.7343   -0.3552 C   0  0  0  0  0  0
    4.1145   -5.4245   -2.1786 C   0  0  0  0  0  0
    4.3270    1.6731   -2.1335 C   0  0  0  0  0  0
    5.7461    1.4970   -2.1044 O   0  0  0  0  0  0
    6.1918    0.1761   -2.4028 C   0  0  0  0  0  0
    5.5422   -0.8223   -1.4199 C   0  0  0  0  0  0
    0.3589    0.9864    2.3927 H   0  0  0  0  0  0
   -2.7480    3.8280   -0.1985 H   0  0  0  0  0  0
   -2.1618    4.4338    2.1045 H   0  0  0  0  0  0
   -2.3455    2.5936   -2.1913 H   0  0  0  0  0  0
   -1.0793    1.3649   -2.2749 H   0  0  0  0  0  0
   -3.2240    0.4958   -2.7664 H   0  0  0  0  0  0
   -3.8381    0.9546   -1.3153 H   0  0  0  0  0  0
   -0.2032   -0.8380    0.6611 H   0  0  0  0  0  0
   -0.5170   -0.3891   -0.9698 H   0  0  0  0  0  0
    1.9585   -0.7354    0.1498 H   0  0  0  0  0  0
    3.9327    0.8278   -0.1722 H   0  0  0  0  0  0
    5.1136   -2.9538   -2.8132 H   0  0  0  0  0  0
    4.0892   -2.6652   -4.7498 H   0  0  0  0  0  0
    1.5995   -4.9830   -1.2064 H   0  0  0  0  0  0
    1.5911   -4.4092   -2.8642 H   0  0  0  0  0  0
    1.4522   -3.2680   -1.5351 H   0  0  0  0  0  0
    3.4404   -2.8253    0.0208 H   0  0  0  0  0  0
    4.9901   -3.6108   -0.2618 H   0  0  0  0  0  0
    3.6212   -4.5366    0.3251 H   0  0  0  0  0  0
    3.8229   -6.1990   -1.4678 H   0  0  0  0  0  0
    5.2047   -5.3841   -2.1829 H   0  0  0  0  0  0
    3.7988   -5.7671   -3.1649 H   0  0  0  0  0  0
    3.9709    1.5879   -3.1623 H   0  0  0  0  0  0
    4.1157    2.6940   -1.8128 H   0  0  0  0  0  0
    5.9678   -0.0818   -3.4397 H   0  0  0  0  0  0
    7.2773    0.1268   -2.3186 H   0  0  0  0  0  0
    5.7120   -0.4600   -0.4047 H   0  0  0  0  0  0
    5.9820   -1.8158   -1.3566 H   0  0  0  0  0  0
   -2.6763   -0.2097   -1.3904 H   0  0  0  0  0  0
  1  2  2  0  0  0
  1  6  1  0  0  0
  1 28  1  0  0  0
  2  3  1  0  0  0
  2 10  1  0  0  0
  3  4  2  0  0  0
  3  8  1  0  0  0
  4  5  1  0  0  0
  4 29  1  0  0  0
  5  6  2  0  0  0
  5 30  1  0  0  0
  6  7  1  0  0  0
  8  9  1  0  0  0
  8 31  1  0  0  0
  8 32  1  0  0  0
  9 33  1  0  0  0
  9 34  1  0  0  0
  9 56  1  0  0  0
 10 11  1  0  0  0
 10 35  1  0  0  0
 10 36  1  0  0  0
 11 12  1  0  0  0
 11 37  1  0  0  0
 12 13  1  0  0  0
 12 14  2  0  0  0
 13 15  1  0  0  0
 13 24  1  0  0  0
 13 38  1  0  0  0
 15 16  1  0  0  0
 15 27  1  0  0  0
 16 17  1  0  0  0
 16 18  2  0  0  0
 17 19  1  0  0  0
 17 20  1  0  0  0
 17 39  1  0  0  0
 19 21  1  0  0  0
 19 22  1  0  0  0
 19 23  1  0  0  0
 20 40  1  0  0  0
 21 41  1  0  0  0
 21 42  1  0  0  0
 21 43  1  0  0  0
 22 44  1  0  0  0
 22 45  1  0  0  0
 22 46  1  0  0  0
 23 47  1  0  0  0
 23 48  1  0  0  0
 23 49  1  0  0  0
 24 25  1  0  0  0
 24 50  1  0  0  0
 24 51  1  0  0  0
 25 26  1  0  0  0
 26 27  1  0  0  0
 26 52  1  0  0  0
 26 53  1  0  0  0
 27 54  1  0  0  0
 27 55  1  0  0  0
M  CHG  1   9   1
M  END
> <chembl_id>
CHEMBL3114556

> <chembl_pref_name>
None

> <i_m_ct_stereo_status>
1

> <s_m_source_file>
sdf/inactives_sanitized.sdf

> <i_m_source_file_index>
198

> <i_lp_mmshare_version>
49012

> <i_f3d_flags>
0

> <s_epik_input>
W05IMl1bQ0gyXWMxW2NIXVtjSF1jKENsKVtjSF1jMVtDSDJdW05IXUMoPU8pW0NASF0yTihDKD1PKVtDQEhdKFtPSF0pQyhbQ0gzXSkoW0NIM10pW0NIM10pW0NIMl1bQ0gyXU9bQ0gyXTI=

> <s_epik_cmdline>
J2VwaWtfcHl0aG9uJywgJy1waHQnLCAnMC41JywgJy1waCcsICc3LjUnLCAnLW50JywgJy1tYScsICcyMDAnLCAnLWltYWUnLCAnPGluZmlsZS5tYWU+JywgJy1vbWFlJywgJzxvdXRmaWxlLm1hZT4n

> <r_epik_Ionization_Penalty>
  0.0918

> <r_epik_Ionization_Penalty_Charging>
  0.0917

> <r_epik_Ionization_Penalty_Neutral>
  0.0001

> <r_epik_State_Penalty>
  0.0820

> <r_epik_Charging_Adjusted_Penalty>
0.17375602797785

> <i_epik_Tot_Q>
1

> <i_epik_Tot_abs_Q>
1

> <s_lp_Force_Field>
OPLS3e

> <r_lp_Energy>
43.958878

> <b_lp_Chiralities_Consistent>
1

> <s_lp_Variant>
sdf/inactives_sanitized.sdf:198-1

$$$$
sdf/inactives_sanitized.sdf:199
                    3D
 Schrodinger Suite 2020-1.
 80 84  0  0  1  0            999 V2000
  -11.0087    0.1271   -5.1264 C   0  0  0  0  0  0
   -9.6173    0.4099   -5.1818 O   0  0  0  0  0  0
   -8.7305   -0.3458   -4.5026 C   0  0  0  0  0  0
   -9.0352   -1.3118   -3.7998 O   0  0  0  0  0  0
   -7.4559    0.1621   -4.7350 N   0  0  0  0  0  0
   -6.2120   -0.2933   -4.2662 C   0  0  0  0  0  0
   -6.0228   -1.4691   -3.5236 C   0  0  0  0  0  0
   -4.7451   -1.8388   -3.1063 C   0  0  0  0  0  0
   -3.6331   -1.0513   -3.4161 C   0  0  0  0  0  0
   -3.8215    0.1274   -4.1647 C   0  0  0  0  0  0
   -2.7357    0.9041   -4.5958 N   0  0  0  0  0  0
   -2.2071    1.9910   -3.9923 C   0  0  0  0  0  0
   -1.3059    2.6090   -4.5580 O   0  0  0  0  0  0
   -2.7099    2.4895   -2.6092 C   0  0  2  0  0  0
   -3.8343    3.5279   -2.8054 C   0  0  0  0  0  0
   -1.5731    3.0875   -1.7159 C   0  0  0  0  0  0
   -0.3783    2.1580   -1.3701 C   0  0  0  0  0  0
   -0.5637    1.2858   -0.0994 C   0  0  0  0  0  0
    0.0417   -0.1552   -0.1562 C   0  0  2  0  0  0
    1.5237   -0.1465   -0.0380 N   0  0  0  0  0  0
    2.3364    0.4010   -1.1618 C   0  0  0  0  0  0
    3.7813   -0.1650   -1.1911 C   0  0  0  0  0  0
    4.3693   -0.1315    0.2081 C   0  0  0  0  0  0
    3.5325   -0.2518    1.2582 C   0  0  0  0  0  0
    2.1023   -0.4531    1.1691 C   0  0  0  0  0  0
    1.4918   -0.9167    2.1337 O   0  0  0  0  0  0
    5.8896   -0.0288    0.3467 C   0  0  2  0  0  0
    6.4923   -1.3651    0.8437 C   0  0  0  0  0  0
    8.0228   -1.2901    0.9925 C   0  0  0  0  0  0
    8.4420   -0.1144    1.8924 C   0  0  0  0  0  0
    7.8450    1.2254    1.4216 C   0  0  0  0  0  0
    6.3047    1.0945    1.3401 N   0  3  1  0  0  0
    5.7008    2.4677    0.9659 C   0  0  0  0  0  0
   -0.5235   -1.0051   -1.3151 C   0  0  0  0  0  0
   -1.8464   -0.8275   -1.7258 C   0  0  0  0  0  0
   -2.2999   -1.4312   -2.8958 C   0  0  0  0  0  0
   -1.4476   -2.3103   -3.5705 C   0  0  0  0  0  0
   -0.1621   -2.5144   -3.0623 C   0  0  0  0  0  0
    0.3100   -1.8674   -1.9644 N   0  0  0  0  0  0
   -5.1025    0.4913   -4.5903 C   0  0  0  0  0  0
  -11.5566    0.8419   -5.7404 H   0  0  0  0  0  0
  -11.3827    0.2010   -4.1043 H   0  0  0  0  0  0
  -11.2206   -0.8753   -5.5013 H   0  0  0  0  0  0
   -7.4134    0.9791   -5.3260 H   0  0  0  0  0  0
   -6.8424   -2.1164   -3.2563 H   0  0  0  0  0  0
   -4.6223   -2.7415   -2.5250 H   0  0  0  0  0  0
   -2.3295    0.6275   -5.4778 H   0  0  0  0  0  0
   -3.1534    1.6571   -2.0692 H   0  0  0  0  0  0
   -4.6703    3.1174   -3.3729 H   0  0  0  0  0  0
   -3.4807    4.4118   -3.3389 H   0  0  0  0  0  0
   -4.2337    3.8602   -1.8467 H   0  0  0  0  0  0
   -1.1741    3.9722   -2.2161 H   0  0  0  0  0  0
   -2.0009    3.4665   -0.7864 H   0  0  0  0  0  0
   -0.1376    1.5395   -2.2333 H   0  0  0  0  0  0
    0.5079    2.7765   -1.2229 H   0  0  0  0  0  0
   -0.1445    1.8156    0.7576 H   0  0  0  0  0  0
   -1.6225    1.2170    0.1488 H   0  0  0  0  0  0
   -0.3729   -0.6633    0.7157 H   0  0  0  0  0  0
    1.8156    0.3825   -2.1187 H   0  0  0  0  0  0
    2.4638    1.4588   -0.9269 H   0  0  0  0  0  0
    3.7503   -1.1986   -1.5386 H   0  0  0  0  0  0
    4.3968    0.3878   -1.9013 H   0  0  0  0  0  0
    3.9544   -0.2493    2.2532 H   0  0  0  0  0  0
    6.3564    0.2644   -0.5963 H   0  0  0  0  0  0
    6.0508   -1.6463    1.8016 H   0  0  0  0  0  0
    6.2373   -2.1668    0.1486 H   0  0  0  0  0  0
    8.4045   -2.2268    1.4010 H   0  0  0  0  0  0
    8.4806   -1.1786    0.0081 H   0  0  0  0  0  0
    8.1296   -0.3089    2.9197 H   0  0  0  0  0  0
    9.5298   -0.0404    1.9170 H   0  0  0  0  0  0
    8.0651    2.0291    2.1259 H   0  0  0  0  0  0
    8.1982    1.5093    0.4284 H   0  0  0  0  0  0
    6.0240    2.7119   -0.0472 H   0  0  0  0  0  0
    6.0680    3.1959    1.6901 H   0  0  0  0  0  0
    4.6156    2.3917    1.0316 H   0  0  0  0  0  0
   -2.5121   -0.1769   -1.1843 H   0  0  0  0  0  0
   -1.7650   -2.8060   -4.4764 H   0  0  0  0  0  0
    0.5253   -3.1837   -3.5582 H   0  0  0  0  0  0
   -5.2315    1.3872   -5.1825 H   0  0  0  0  0  0
    5.9913    0.8250    2.2620 H   0  0  0  0  0  0
  1  2  1  0  0  0
  1 41  1  0  0  0
  1 42  1  0  0  0
  1 43  1  0  0  0
  2  3  1  0  0  0
  3  4  2  0  0  0
  3  5  1  0  0  0
  5  6  1  0  0  0
  5 44  1  0  0  0
  6  7  2  0  0  0
  6 40  1  0  0  0
  7  8  1  0  0  0
  7 45  1  0  0  0
  8  9  2  0  0  0
  8 46  1  0  0  0
  9 10  1  0  0  0
  9 36  1  0  0  0
 10 11  1  0  0  0
 10 40  2  0  0  0
 11 12  1  0  0  0
 11 47  1  0  0  0
 12 13  2  0  0  0
 12 14  1  0  0  0
 14 15  1  0  0  0
 14 16  1  0  0  0
 14 48  1  0  0  0
 15 49  1  0  0  0
 15 50  1  0  0  0
 15 51  1  0  0  0
 16 17  1  0  0  0
 16 52  1  0  0  0
 16 53  1  0  0  0
 17 18  1  0  0  0
 17 54  1  0  0  0
 17 55  1  0  0  0
 18 19  1  0  0  0
 18 56  1  0  0  0
 18 57  1  0  0  0
 19 20  1  0  0  0
 19 34  1  0  0  0
 19 58  1  0  0  0
 20 21  1  0  0  0
 20 25  1  0  0  0
 21 22  1  0  0  0
 21 59  1  0  0  0
 21 60  1  0  0  0
 22 23  1  0  0  0
 22 61  1  0  0  0
 22 62  1  0  0  0
 23 24  2  0  0  0
 23 27  1  0  0  0
 24 25  1  0  0  0
 24 63  1  0  0  0
 25 26  2  0  0  0
 27 28  1  0  0  0
 27 32  1  0  0  0
 27 64  1  0  0  0
 28 29  1  0  0  0
 28 65  1  0  0  0
 28 66  1  0  0  0
 29 30  1  0  0  0
 29 67  1  0  0  0
 29 68  1  0  0  0
 30 31  1  0  0  0
 30 69  1  0  0  0
 30 70  1  0  0  0
 31 32  1  0  0  0
 31 71  1  0  0  0
 31 72  1  0  0  0
 32 33  1  0  0  0
 32 80  1  0  0  0
 33 73  1  0  0  0
 33 74  1  0  0  0
 33 75  1  0  0  0
 34 35  1  0  0  0
 34 39  2  0  0  0
 35 36  2  0  0  0
 35 76  1  0  0  0
 36 37  1  0  0  0
 37 38  2  0  0  0
 37 77  1  0  0  0
 38 39  1  0  0  0
 38 78  1  0  0  0
 40 79  1  0  0  0
M  CHG  1  32   1
M  END
> <chembl_id>
CHEMBL4107893

> <chembl_pref_name>
None

> <i_m_ct_stereo_status>
1

> <s_m_source_file>
sdf/inactives_sanitized.sdf

> <i_m_source_file_index>
199

> <i_lp_mmshare_version>
49012

> <i_f3d_flags>
0

> <s_epik_input>
W0NIM11PQyg9TylbTkhdYyhbY0hdW2NIXTEpW2NIXWMoYzEyKVtOSF1DKD1PKVtDQEhdKFtDSDNdKVtDSDJdW0NIMl1bQ0gyXVtDQEBIXShjM1tjSF1jMltjSF1bY0hdbjMpTjRbQ0gyXVtDSDJdQyg9W0NIXUM0PU8pW0NAQEhdNVtDSDJdW0NIMl1bQ0gyXVtDSDJdTjVbQ0gzXQ==

> <s_epik_cmdline>
J2VwaWtfcHl0aG9uJywgJy1waHQnLCAnMC41JywgJy1waCcsICc3LjUnLCAnLW50JywgJy1tYScsICcyMDAnLCAnLWltYWUnLCAnPGluZmlsZS5tYWU+JywgJy1vbWFlJywgJzxvdXRmaWxlLm1hZT4n

> <r_epik_Ionization_Penalty>
  0.2703

> <r_epik_Ionization_Penalty_Charging>
  0.2703

> <r_epik_Ionization_Penalty_Neutral>
  0.0001

> <r_epik_State_Penalty>
  0.2624

> <r_epik_Charging_Adjusted_Penalty>
0.532667563220896

> <i_epik_Tot_Q>
1

> <i_epik_Tot_abs_Q>
1

> <s_epik_Chemistry_Notes>
This compound has an ester and may undergo hydrolysis at high or low pH.

> <s_lp_Force_Field>
OPLS3e

> <r_lp_Energy>
93.579993

> <b_lp_Chiralities_Consistent>
1

> <s_lp_Variant>
sdf/inactives_sanitized.sdf:199-1

$$$$
sdf/inactives_sanitized.sdf:199
                    3D
 Schrodinger Suite 2020-1.
 79 83  0  0  1  0            999 V2000
  -11.0350   -4.5850   -2.4222 C   0  0  0  0  0  0
   -9.6741   -4.6543   -2.0196 O   0  0  0  0  0  0
   -8.7605   -3.7987   -2.5209 C   0  0  0  0  0  0
   -9.0143   -2.9132   -3.3404 O   0  0  0  0  0  0
   -7.5241   -4.1025   -1.9589 N   0  0  0  0  0  0
   -6.2760   -3.4864   -2.1520 C   0  0  0  0  0  0
   -5.1894   -4.0766   -1.5055 C   0  0  0  0  0  0
   -3.9106   -3.5415   -1.6394 C   0  0  0  0  0  0
   -3.6822   -2.4050   -2.4222 C   0  0  0  0  0  0
   -4.7841   -1.7878   -3.0547 C   0  0  0  0  0  0
   -4.6656   -0.6517   -3.8723 N   0  0  0  0  0  0
   -4.4078    0.6232   -3.4996 C   0  0  0  0  0  0
   -4.4047    1.5075   -4.3553 O   0  0  0  0  0  0
   -4.1149    1.0170   -2.0268 C   0  0  2  0  0  0
   -5.2657    1.8618   -1.4430 C   0  0  0  0  0  0
   -2.7438    1.7470   -1.9132 C   0  0  0  0  0  0
   -2.1466    1.8148   -0.4820 C   0  0  0  0  0  0
   -0.5973    1.7114   -0.4212 C   0  0  0  0  0  0
   -0.0242    0.2603   -0.3417 C   0  0  2  0  0  0
    1.4442    0.1918   -0.1183 N   0  0  0  0  0  0
    2.3589    1.1390   -0.8219 C   0  0  0  0  0  0
    3.7278    1.2928   -0.1062 C   0  0  0  0  0  0
    4.2668   -0.0814    0.2623 C   0  0  0  0  0  0
    3.3855   -1.0662    0.5159 C   0  0  0  0  0  0
    1.9462   -0.9204    0.5167 C   0  0  0  0  0  0
    1.2510   -1.7488    1.1083 O   0  0  0  0  0  0
    5.7810   -0.2971    0.3585 C   0  0  2  0  0  0
    6.3403    0.5520    1.5324 C   0  0  0  0  0  0
    7.8598    0.3966    1.6901 C   0  0  0  0  0  0
    8.5547    0.6689    0.3501 C   0  0  0  0  0  0
    7.9507   -0.1743   -0.7899 C   0  0  0  0  0  0
    6.4950    0.0075   -0.9021 N   0  0  1  0  0  0
    6.0119   -0.7957   -2.0274 C   0  0  0  0  0  0
   -0.5141   -0.6044   -1.5069 C   0  0  0  0  0  0
   -1.7115   -1.3092   -1.3757 C   0  0  0  0  0  0
   -2.3040   -1.8630   -2.5129 C   0  0  0  0  0  0
   -1.6064   -1.8070   -3.7257 C   0  0  0  0  0  0
   -0.3640   -1.1695   -3.7591 C   0  0  0  0  0  0
    0.1788   -0.5538   -2.6776 N   0  0  0  0  0  0
   -6.0641   -2.3381   -2.9304 C   0  0  0  0  0  0
  -11.6158   -5.3419   -1.8952 H   0  0  0  0  0  0
  -11.1357   -4.7643   -3.4936 H   0  0  0  0  0  0
  -11.4630   -3.6082   -2.1919 H   0  0  0  0  0  0
   -7.5170   -4.8814   -1.3169 H   0  0  0  0  0  0
   -5.3265   -4.9586   -0.8959 H   0  0  0  0  0  0
   -3.0866   -4.0203   -1.1297 H   0  0  0  0  0  0
   -4.9206   -0.7932   -4.8388 H   0  0  0  0  0  0
   -4.0656    0.1127   -1.4247 H   0  0  0  0  0  0
   -6.2169    1.3298   -1.4972 H   0  0  0  0  0  0
   -5.3872    2.8061   -1.9761 H   0  0  0  0  0  0
   -5.0885    2.0968   -0.3931 H   0  0  0  0  0  0
   -2.0269    1.2624   -2.5753 H   0  0  0  0  0  0
   -2.8244    2.7585   -2.3153 H   0  0  0  0  0  0
   -2.4580    2.7584   -0.0317 H   0  0  0  0  0  0
   -2.5801    1.0450    0.1576 H   0  0  0  0  0  0
   -0.1811    2.2538   -1.2701 H   0  0  0  0  0  0
   -0.2624    2.2492    0.4670 H   0  0  0  0  0  0
   -0.4857   -0.1550    0.5566 H   0  0  0  0  0  0
    2.6052    0.6400   -1.7605 H   0  0  0  0  0  0
    1.8966    2.0774   -1.1199 H   0  0  0  0  0  0
    4.4296    1.8497   -0.7276 H   0  0  0  0  0  0
    3.5844    1.8733    0.8060 H   0  0  0  0  0  0
    3.7686   -2.0410    0.7825 H   0  0  0  0  0  0
    5.9832   -1.3446    0.5933 H   0  0  0  0  0  0
    6.1113    1.6079    1.3758 H   0  0  0  0  0  0
    5.8499    0.2712    2.4658 H   0  0  0  0  0  0
    8.2359    1.0743    2.4574 H   0  0  0  0  0  0
    8.0926   -0.6149    2.0272 H   0  0  0  0  0  0
    8.5116    1.7276    0.0897 H   0  0  0  0  0  0
    9.6170    0.4403    0.4422 H   0  0  0  0  0  0
    8.4183    0.1175   -1.7318 H   0  0  0  0  0  0
    8.1804   -1.2321   -0.6462 H   0  0  0  0  0  0
    6.5478   -0.5434   -2.9435 H   0  0  0  0  0  0
    4.9543   -0.6140   -2.2209 H   0  0  0  0  0  0
    6.1435   -1.8628   -1.8403 H   0  0  0  0  0  0
   -2.2403   -1.3110   -0.4334 H   0  0  0  0  0  0
   -2.0280   -2.2289   -4.6265 H   0  0  0  0  0  0
    0.1977   -1.1082   -4.6795 H   0  0  0  0  0  0
   -6.8801   -1.8491   -3.4386 H   0  0  0  0  0  0
  1  2  1  0  0  0
  1 41  1  0  0  0
  1 42  1  0  0  0
  1 43  1  0  0  0
  2  3  1  0  0  0
  3  4  2  0  0  0
  3  5  1  0  0  0
  5  6  1  0  0  0
  5 44  1  0  0  0
  6  7  2  0  0  0
  6 40  1  0  0  0
  7  8  1  0  0  0
  7 45  1  0  0  0
  8  9  2  0  0  0
  8 46  1  0  0  0
  9 10  1  0  0  0
  9 36  1  0  0  0
 10 11  1  0  0  0
 10 40  2  0  0  0
 11 12  1  0  0  0
 11 47  1  0  0  0
 12 13  2  0  0  0
 12 14  1  0  0  0
 14 15  1  0  0  0
 14 16  1  0  0  0
 14 48  1  0  0  0
 15 49  1  0  0  0
 15 50  1  0  0  0
 15 51  1  0  0  0
 16 17  1  0  0  0
 16 52  1  0  0  0
 16 53  1  0  0  0
 17 18  1  0  0  0
 17 54  1  0  0  0
 17 55  1  0  0  0
 18 19  1  0  0  0
 18 56  1  0  0  0
 18 57  1  0  0  0
 19 20  1  0  0  0
 19 34  1  0  0  0
 19 58  1  0  0  0
 20 21  1  0  0  0
 20 25  1  0  0  0
 21 22  1  0  0  0
 21 59  1  0  0  0
 21 60  1  0  0  0
 22 23  1  0  0  0
 22 61  1  0  0  0
 22 62  1  0  0  0
 23 24  2  0  0  0
 23 27  1  0  0  0
 24 25  1  0  0  0
 24 63  1  0  0  0
 25 26  2  0  0  0
 27 28  1  0  0  0
 27 32  1  0  0  0
 27 64  1  0  0  0
 28 29  1  0  0  0
 28 65  1  0  0  0
 28 66  1  0  0  0
 29 30  1  0  0  0
 29 67  1  0  0  0
 29 68  1  0  0  0
 30 31  1  0  0  0
 30 69  1  0  0  0
 30 70  1  0  0  0
 31 32  1  0  0  0
 31 71  1  0  0  0
 31 72  1  0  0  0
 32 33  1  0  0  0
 33 73  1  0  0  0
 33 74  1  0  0  0
 33 75  1  0  0  0
 34 35  1  0  0  0
 34 39  2  0  0  0
 35 36  2  0  0  0
 35 76  1  0  0  0
 36 37  1  0  0  0
 37 38  2  0  0  0
 37 77  1  0  0  0
 38 39  1  0  0  0
 38 78  1  0  0  0
 40 79  1  0  0  0
M  END
> <chembl_id>
CHEMBL4107893

> <chembl_pref_name>
None

> <i_m_ct_stereo_status>
1

> <s_m_source_file>
sdf/inactives_sanitized.sdf

> <i_m_source_file_index>
199

> <i_lp_mmshare_version>
49012

> <i_f3d_flags>
0

> <s_epik_input>
W0NIM11PQyg9TylbTkhdYyhbY0hdW2NIXTEpW2NIXWMoYzEyKVtOSF1DKD1PKVtDQEhdKFtDSDNdKVtDSDJdW0NIMl1bQ0gyXVtDQEBIXShjM1tjSF1jMltjSF1bY0hdbjMpTjRbQ0gyXVtDSDJdQyg9W0NIXUM0PU8pW0NAQEhdNVtDSDJdW0NIMl1bQ0gyXVtDSDJdTjVbQ0gzXQ==

> <s_epik_cmdline>
J2VwaWtfcHl0aG9uJywgJy1waHQnLCAnMC41JywgJy1waCcsICc3LjUnLCAnLW50JywgJy1tYScsICcyMDAnLCAnLWltYWUnLCAnPGluZmlsZS5tYWU+JywgJy1vbWFlJywgJzxvdXRmaWxlLm1hZT4n

> <r_epik_Ionization_Penalty>
  0.5952

> <r_epik_Ionization_Penalty_Charging>
  0.0000

> <r_epik_Ionization_Penalty_Neutral>
  0.5952

> <r_epik_State_Penalty>
  0.6089

> <r_epik_Charging_Adjusted_Penalty>
0.608937399477819

> <i_epik_Tot_Q>
0

> <i_epik_Tot_abs_Q>
0

> <s_epik_Chemistry_Notes>
This compound has an ester and may undergo hydrolysis at high or low pH.

> <s_lp_Force_Field>
OPLS3e

> <r_lp_Energy>
83.50017

> <b_lp_Chiralities_Consistent>
1

> <s_lp_Variant>
sdf/inactives_sanitized.sdf:199-2

$$$$
sdf/inactives_sanitized.sdf:200
                    3D
 Schrodinger Suite 2020-1.
 78 82  0  0  1  0            999 V2000
  -10.2976   -6.1114   -0.8381 C   0  0  0  0  0  0
   -9.4879   -5.0821   -1.3897 O   0  0  0  0  0  0
   -8.1550   -5.0681   -1.1879 C   0  0  0  0  0  0
   -7.5424   -5.9148   -0.5338 O   0  0  0  0  0  0
   -7.6275   -3.9553   -1.8361 N   0  0  0  0  0  0
   -6.2964   -3.5105   -1.9143 C   0  0  0  0  0  0
   -5.2048   -4.1537   -1.3132 C   0  0  0  0  0  0
   -3.9201   -3.6324   -1.4522 C   0  0  0  0  0  0
   -3.6874   -2.4667   -2.1896 C   0  0  0  0  0  0
   -4.7901   -1.8061   -2.7737 C   0  0  0  0  0  0
   -4.6680   -0.6359   -3.5403 N   0  0  0  0  0  0
   -4.4006    0.6178   -3.1083 C   0  0  0  0  0  0
   -4.3992    1.5435   -3.9189 O   0  0  0  0  0  0
   -4.0920    0.9352   -1.6203 C   0  0  2  0  0  0
   -5.2247    1.7696   -0.9877 C   0  0  0  0  0  0
   -2.7081    1.6362   -1.4820 C   0  0  0  0  0  0
   -2.0923    1.6052   -0.0576 C   0  0  0  0  0  0
   -0.5421    1.5105   -0.0255 C   0  0  0  0  0  0
    0.0611    0.0686   -0.0874 C   0  0  2  0  0  0
    1.5434    0.0432    0.0036 N   0  0  0  0  0  0
    2.3435    1.0621   -0.7412 C   0  0  0  0  0  0
    3.7511    0.5517   -1.1508 C   0  0  0  0  0  0
    4.3882   -0.1546    0.0315 C   0  0  0  0  0  0
    3.5863   -0.8645    0.8502 C   0  0  0  0  0  0
    2.1480   -0.9584    0.7234 C   0  0  0  0  0  0
    1.5449   -1.9048    1.2330 O   0  0  0  0  0  0
    5.8609   -0.2693    0.1298 C   0  0  0  0  0  0
    6.3729    0.0630    1.3472 N   0  0  0  0  0  0
    7.7171    0.0058    1.5178 C   0  0  0  0  0  0
    8.5938   -0.3721    0.5019 C   0  0  0  0  0  0
    8.0647   -0.7122   -0.7443 C   0  0  0  0  0  0
    9.1320   -1.1793   -2.0215 Cl  0  0  0  0  0  0
    6.6771   -0.6713   -0.9433 C   0  0  0  0  0  0
    6.1420   -1.0072   -2.1634 O   0  0  0  0  0  0
    5.7567   -2.3710   -2.2723 C   0  0  0  0  0  0
   -0.4808   -0.7381   -1.2716 C   0  0  0  0  0  0
   -1.6843   -1.4311   -1.1417 C   0  0  0  0  0  0
   -2.3032   -1.9407   -2.2851 C   0  0  0  0  0  0
   -1.6256   -1.8580   -3.5077 C   0  0  0  0  0  0
   -0.3746   -1.2367   -3.5551 C   0  0  0  0  0  0
    0.2907   -1.1761   -4.7663 O   0  0  0  0  0  0
    1.5657   -0.5380   -4.8348 C   0  0  0  0  0  0
    0.1897   -0.6650   -2.4526 N   0  0  0  0  0  0
   -6.0753   -2.3416   -2.6458 C   0  0  0  0  0  0
  -11.3409   -5.9433   -1.1051 H   0  0  0  0  0  0
  -10.2239   -6.1280    0.2505 H   0  0  0  0  0  0
  -10.0019   -7.0895   -1.2207 H   0  0  0  0  0  0
   -8.2970   -3.3771   -2.3224 H   0  0  0  0  0  0
   -5.3170   -5.0561   -0.7346 H   0  0  0  0  0  0
   -3.0941   -4.1459   -0.9810 H   0  0  0  0  0  0
   -4.9177   -0.7325   -4.5138 H   0  0  0  0  0  0
   -4.0527    0.0019   -1.0633 H   0  0  0  0  0  0
   -6.1855    1.2578   -1.0609 H   0  0  0  0  0  0
   -5.3330    2.7408   -1.4733 H   0  0  0  0  0  0
   -5.0371    1.9496    0.0712 H   0  0  0  0  0  0
   -2.0071    1.1831   -2.1823 H   0  0  0  0  0  0
   -2.7777    2.6715   -1.8209 H   0  0  0  0  0  0
   -2.4040    2.5123    0.4622 H   0  0  0  0  0  0
   -2.5106    0.7895    0.5331 H   0  0  0  0  0  0
   -0.1389    2.1429   -0.8165 H   0  0  0  0  0  0
   -0.2039    1.9647    0.9072 H   0  0  0  0  0  0
   -0.3241   -0.4259    0.8067 H   0  0  0  0  0  0
    1.7872    1.4986   -1.5702 H   0  0  0  0  0  0
    2.4983    1.8823   -0.0387 H   0  0  0  0  0  0
    3.6212   -0.1601   -1.9673 H   0  0  0  0  0  0
    4.3732    1.3681   -1.5189 H   0  0  0  0  0  0
    4.0361   -1.4487    1.6411 H   0  0  0  0  0  0
    8.0903    0.2742    2.4953 H   0  0  0  0  0  0
    9.6592   -0.4000    0.6787 H   0  0  0  0  0  0
    5.3487   -2.5531   -3.2663 H   0  0  0  0  0  0
    4.9857   -2.6312   -1.5450 H   0  0  0  0  0  0
    6.6071   -3.0408   -2.1334 H   0  0  0  0  0  0
   -2.1950   -1.4608   -0.1898 H   0  0  0  0  0  0
   -2.0710   -2.2524   -4.4095 H   0  0  0  0  0  0
    1.9412   -0.5865   -5.8567 H   0  0  0  0  0  0
    2.2944   -1.0307   -4.1887 H   0  0  0  0  0  0
    1.5007    0.5145   -4.5543 H   0  0  0  0  0  0
   -6.9106   -1.8372   -3.1129 H   0  0  0  0  0  0
  1  2  1  0  0  0
  1 45  1  0  0  0
  1 46  1  0  0  0
  1 47  1  0  0  0
  2  3  1  0  0  0
  3  4  2  0  0  0
  3  5  1  0  0  0
  5  6  1  0  0  0
  5 48  1  0  0  0
  6  7  2  0  0  0
  6 44  1  0  0  0
  7  8  1  0  0  0
  7 49  1  0  0  0
  8  9  2  0  0  0
  8 50  1  0  0  0
  9 10  1  0  0  0
  9 38  1  0  0  0
 10 11  1  0  0  0
 10 44  2  0  0  0
 11 12  1  0  0  0
 11 51  1  0  0  0
 12 13  2  0  0  0
 12 14  1  0  0  0
 14 15  1  0  0  0
 14 16  1  0  0  0
 14 52  1  0  0  0
 15 53  1  0  0  0
 15 54  1  0  0  0
 15 55  1  0  0  0
 16 17  1  0  0  0
 16 56  1  0  0  0
 16 57  1  0  0  0
 17 18  1  0  0  0
 17 58  1  0  0  0
 17 59  1  0  0  0
 18 19  1  0  0  0
 18 60  1  0  0  0
 18 61  1  0  0  0
 19 20  1  0  0  0
 19 36  1  0  0  0
 19 62  1  0  0  0
 20 21  1  0  0  0
 20 25  1  0  0  0
 21 22  1  0  0  0
 21 63  1  0  0  0
 21 64  1  0  0  0
 22 23  1  0  0  0
 22 65  1  0  0  0
 22 66  1  0  0  0
 23 24  2  0  0  0
 23 27  1  0  0  0
 24 25  1  0  0  0
 24 67  1  0  0  0
 25 26  2  0  0  0
 27 28  2  0  0  0
 27 33  1  0  0  0
 28 29  1  0  0  0
 29 30  2  0  0  0
 29 68  1  0  0  0
 30 31  1  0  0  0
 30 69  1  0  0  0
 31 32  1  0  0  0
 31 33  2  0  0  0
 33 34  1  0  0  0
 34 35  1  0  0  0
 35 70  1  0  0  0
 35 71  1  0  0  0
 35 72  1  0  0  0
 36 37  1  0  0  0
 36 43  2  0  0  0
 37 38  2  0  0  0
 37 73  1  0  0  0
 38 39  1  0  0  0
 39 40  2  0  0  0
 39 74  1  0  0  0
 40 41  1  0  0  0
 40 43  1  0  0  0
 41 42  1  0  0  0
 42 75  1  0  0  0
 42 76  1  0  0  0
 42 77  1  0  0  0
 44 78  1  0  0  0
M  END
> <chembl_id>
CHEMBL4113877

> <chembl_pref_name>
None

> <i_m_ct_stereo_status>
1

> <s_m_source_file>
sdf/inactives_sanitized.sdf

> <i_m_source_file_index>
200

> <i_lp_mmshare_version>
49012

> <i_f3d_flags>
0

> <s_epik_input>
W0NIM11PQyg9TylbTkhdYyhbY0hdW2NIXTEpW2NIXWMoYzEyKVtOSF1DKD1PKVtDQEhdKFtDSDNdKVtDSDJdW0NIMl1bQ0gyXVtDQEBIXShjM1tjSF1jMltjSF1jKG4zKU9bQ0gzXSlONFtDSDJdW0NIMl1DKD1bQ0hdQzQ9TyljNW5bY0hdW2NIXWMoQ2wpYzVPW0NIM10=

> <s_epik_cmdline>
J2VwaWtfcHl0aG9uJywgJy1waHQnLCAnMC41JywgJy1waCcsICc3LjUnLCAnLW50JywgJy1tYScsICcyMDAnLCAnLWltYWUnLCAnPGluZmlsZS5tYWU+JywgJy1vbWFlJywgJzxvdXRmaWxlLm1hZT4n

> <r_lp_tautomer_probability>
1

> <r_epik_Ionization_Penalty>
  0.0020

> <r_epik_Ionization_Penalty_Charging>
  0.0000

> <r_epik_Ionization_Penalty_Neutral>
  0.0020

> <r_epik_State_Penalty>
 -0.0000

> <r_epik_Charging_Adjusted_Penalty>
0

> <i_epik_Tot_Q>
0

> <i_epik_Tot_abs_Q>
0

> <s_epik_Chemistry_Notes>
This compound has an ester and may undergo hydrolysis at high or low pH.

> <s_lp_Force_Field>
OPLS3e

> <r_lp_Energy>
101.70878

> <b_lp_Chiralities_Consistent>
1

> <s_lp_Variant>
sdf/inactives_sanitized.sdf:200-1

$$$$
sdf/inactives_sanitized.sdf:201
                    3D
 Schrodinger Suite 2020-1.
 65 69  0  0  1  0            999 V2000
   -5.1995    1.8604   -1.1207 C   0  0  0  0  0  0
   -4.0933    0.9819   -1.7397 C   0  0  2  0  0  0
   -2.6933    1.6573   -1.6433 C   0  0  0  0  0  0
   -2.0639    1.6663   -0.2247 C   0  0  0  0  0  0
   -0.5164    1.5370   -0.2012 C   0  0  0  0  0  0
    0.0514    0.0800   -0.2078 C   0  0  2  0  0  0
    1.5317    0.0293   -0.1016 N   0  0  0  0  0  0
    2.3555    0.9957   -0.8896 C   0  0  0  0  0  0
    3.7853    0.4770   -1.2024 C   0  0  0  0  0  0
    4.3665   -0.1484    0.0480 C   0  0  0  0  0  0
    3.5427   -0.8194    0.8738 C   0  0  0  0  0  0
    2.1096   -0.9222    0.7036 C   0  0  0  0  0  0
    1.4875   -1.8292    1.2597 O   0  0  0  0  0  0
    5.8276   -0.2708    0.1995 C   0  0  0  0  0  0
    6.5346   -1.3480   -0.3613 C   0  0  0  0  0  0
    5.6448   -2.7178   -1.3495 Br  0  0  0  0  0  0
    7.9179   -1.4368   -0.2017 C   0  0  0  0  0  0
    8.6076   -0.4596    0.5122 C   0  0  0  0  0  0
    7.9167    0.6154    1.0691 C   0  0  0  0  0  0
    8.7861    1.8214    1.9496 Cl  0  0  0  0  0  0
    6.5307    0.7111    0.9130 C   0  0  0  0  0  0
    5.8669    1.7611    1.4555 F   0  0  0  0  0  0
   -0.5087   -0.7562   -1.3632 C   0  0  0  0  0  0
   -1.7282   -1.4172   -1.2006 C   0  0  0  0  0  0
   -2.3715   -1.9488   -2.3213 C   0  0  0  0  0  0
   -1.7041   -1.9198   -3.5518 C   0  0  0  0  0  0
   -0.4400   -1.3299   -3.6189 C   0  0  0  0  0  0
    0.1536   -0.7350   -2.5530 N   0  0  0  0  0  0
   -3.7655   -2.4433   -2.1962 C   0  0  0  0  0  0
   -4.0135   -3.5809   -1.4221 C   0  0  0  0  0  0
   -5.3068   -4.0738   -1.2612 C   0  0  0  0  0  0
   -6.4002   -3.4407   -1.8697 C   0  0  0  0  0  0
   -6.1549   -2.2931   -2.6390 C   0  0  0  0  0  0
   -4.8617   -1.7832   -2.7921 C   0  0  0  0  0  0
   -4.7280   -0.6404   -3.5979 N   0  0  0  0  0  0
   -4.4298    0.6214   -3.2116 C   0  0  0  0  0  0
   -4.4229    1.5202   -4.0524 O   0  0  0  0  0  0
   -7.7938   -3.9747   -1.7022 C   0  0  0  0  0  0
   -8.7279   -3.3726   -2.2800 O   0  0  0  0  0  0
   -7.9518   -4.9950   -0.9929 O   0  5  0  0  0  0
   -6.1724    1.3687   -1.1701 H   0  0  0  0  0  0
   -5.2904    2.8194   -1.6331 H   0  0  0  0  0  0
   -4.9968    2.0664   -0.0693 H   0  0  0  0  0  0
   -4.0666    0.0671   -1.1520 H   0  0  0  0  0  0
   -2.0101    1.1622   -2.3325 H   0  0  0  0  0  0
   -2.7443    2.6804   -2.0205 H   0  0  0  0  0  0
   -2.3504    2.5986    0.2643 H   0  0  0  0  0  0
   -2.4950    0.8821    0.3984 H   0  0  0  0  0  0
   -0.1025    2.1255   -1.0204 H   0  0  0  0  0  0
   -0.1604    2.0208    0.7096 H   0  0  0  0  0  0
   -0.3518   -0.3719    0.7010 H   0  0  0  0  0  0
    1.8255    1.3722   -1.7644 H   0  0  0  0  0  0
    2.4791    1.8632   -0.2397 H   0  0  0  0  0  0
    3.7091   -0.2861   -1.9782 H   0  0  0  0  0  0
    4.4191    1.2759   -1.5886 H   0  0  0  0  0  0
    3.9702   -1.3564    1.7089 H   0  0  0  0  0  0
    8.4592   -2.2661   -0.6328 H   0  0  0  0  0  0
    9.6785   -0.5381    0.6312 H   0  0  0  0  0  0
   -2.2313   -1.4041   -0.2445 H   0  0  0  0  0  0
   -2.1636   -2.3290   -4.4396 H   0  0  0  0  0  0
    0.1006   -1.2918   -4.5529 H   0  0  0  0  0  0
   -3.1938   -4.0953   -0.9410 H   0  0  0  0  0  0
   -5.4456   -4.9588   -0.6564 H   0  0  0  0  0  0
   -6.9765   -1.7810   -3.1217 H   0  0  0  0  0  0
   -5.0064   -0.7615   -4.5607 H   0  0  0  0  0  0
  1  2  1  0  0  0
  1 41  1  0  0  0
  1 42  1  0  0  0
  1 43  1  0  0  0
  2  3  1  0  0  0
  2 36  1  0  0  0
  2 44  1  0  0  0
  3  4  1  0  0  0
  3 45  1  0  0  0
  3 46  1  0  0  0
  4  5  1  0  0  0
  4 47  1  0  0  0
  4 48  1  0  0  0
  5  6  1  0  0  0
  5 49  1  0  0  0
  5 50  1  0  0  0
  6  7  1  0  0  0
  6 23  1  0  0  0
  6 51  1  0  0  0
  7  8  1  0  0  0
  7 12  1  0  0  0
  8  9  1  0  0  0
  8 52  1  0  0  0
  8 53  1  0  0  0
  9 10  1  0  0  0
  9 54  1  0  0  0
  9 55  1  0  0  0
 10 11  2  0  0  0
 10 14  1  0  0  0
 11 12  1  0  0  0
 11 56  1  0  0  0
 12 13  2  0  0  0
 14 15  2  0  0  0
 14 21  1  0  0  0
 15 16  1  0  0  0
 15 17  1  0  0  0
 17 18  2  0  0  0
 17 57  1  0  0  0
 18 19  1  0  0  0
 18 58  1  0  0  0
 19 20  1  0  0  0
 19 21  2  0  0  0
 21 22  1  0  0  0
 23 24  1  0  0  0
 23 28  2  0  0  0
 24 25  2  0  0  0
 24 59  1  0  0  0
 25 26  1  0  0  0
 25 29  1  0  0  0
 26 27  2  0  0  0
 26 60  1  0  0  0
 27 28  1  0  0  0
 27 61  1  0  0  0
 29 30  2  0  0  0
 29 34  1  0  0  0
 30 31  1  0  0  0
 30 62  1  0  0  0
 31 32  2  0  0  0
 31 63  1  0  0  0
 32 33  1  0  0  0
 32 38  1  0  0  0
 33 34  2  0  0  0
 33 64  1  0  0  0
 34 35  1  0  0  0
 35 36  1  0  0  0
 35 65  1  0  0  0
 36 37  2  0  0  0
 38 39  2  0  0  0
 38 40  1  0  0  0
M  CHG  1  40  -1
M  END
> <chembl_id>
CHEMBL3929758

> <chembl_pref_name>
None

> <i_m_ct_stereo_status>
1

> <s_m_source_file>
sdf/inactives_sanitized.sdf

> <i_m_source_file_index>
201

> <i_lp_mmshare_version>
49012

> <i_f3d_flags>
0

> <s_epik_input>
bjFbY0hdW2NIXWMoW2NIXWMxMiljM2MoW2NIXWMoW2NIXVtjSF0zKUMoPU8pW09IXSlbTkhdQyg9TylbQ0BIXShbQ0gzXSlbQ0gyXVtDSDJdW0NIMl1bQ0BASF0yTjRbQ0gyXVtDSDJdQyg9W0NIXUM0PU8pYzVjKEJyKVtjSF1bY0hdYyhDbCljNUY=

> <s_epik_cmdline>
J2VwaWtfcHl0aG9uJywgJy1waHQnLCAnMC41JywgJy1waCcsICc3LjUnLCAnLW50JywgJy1tYScsICcyMDAnLCAnLWltYWUnLCAnPGluZmlsZS5tYWU+JywgJy1vbWFlJywgJzxvdXRmaWxlLm1hZT4n

> <r_lp_tautomer_probability>
1

> <r_epik_Ionization_Penalty>
  0.0002

> <r_epik_Ionization_Penalty_Charging>
  0.0002

> <r_epik_Ionization_Penalty_Neutral>
  0.0001

> <r_epik_State_Penalty>
 -0.0000

> <r_epik_Charging_Adjusted_Penalty>
0.000153439422440762

> <i_epik_Tot_Q>
-1

> <i_epik_Tot_abs_Q>
1

> <s_lp_Force_Field>
OPLS3e

> <r_lp_Energy>
92.108259

> <b_lp_Chiralities_Consistent>
1

> <s_lp_Variant>
sdf/inactives_sanitized.sdf:201-1

$$$$
sdf/inactives_sanitized.sdf:202
                    3D
 Schrodinger Suite 2020-1.
 45 48  0  0  1  0            999 V2000
   -0.0299    0.1888    0.0694 O   0  0  0  0  0  0
   -0.7466    1.4194    0.0349 C   0  0  0  0  0  0
   -2.2358    1.1211    0.0429 C   0  0  0  0  0  0
   -2.9188    0.9787    1.2551 C   0  0  0  0  0  0
   -4.9762    0.5552    0.0580 C   0  0  0  0  0  0
   -4.2983    0.6922   -1.1548 C   0  0  0  0  0  0
   -4.2856    0.6974    1.2620 C   0  0  0  0  0  0
   -2.9312    0.9733   -1.1618 C   0  0  0  0  0  0
    4.3512    2.5615   -0.1110 C   0  0  0  0  0  0
    3.9707    3.6137   -0.9496 C   0  0  0  0  0  0
    4.7086    4.7902   -1.0392 C   0  0  0  0  0  0
    5.5107    2.6898    0.6658 C   0  0  0  0  0  0
    6.2860    3.8605    0.6057 C   0  0  0  0  0  0
    5.8653    4.9073   -0.2595 C   0  0  0  0  0  0
    6.9634    6.2754   -0.1945 S   0  0  0  0  0  0
    7.9759    5.4542    0.9877 C   0  0  0  0  0  0
    7.4830    4.1947    1.2979 C   0  0  0  0  0  0
    9.1222    6.0486    1.4817 C   0  0  0  0  0  0
    9.1408    7.3608    1.6789 N   0  0  0  0  0  0
   10.1701    5.2804    1.7510 N   0  3  0  0  0  0
    3.5341    1.3157   -0.0455 C   0  0  0  0  0  0
    4.1473    0.0562   -0.0175 C   0  0  0  0  0  0
    1.9952   -1.0301    0.0690 C   0  0  0  0  0  0
    1.3512    0.2074    0.0413 C   0  0  0  0  0  0
    3.3853   -1.1087    0.0398 C   0  0  0  0  0  0
    2.1329    1.3745   -0.0133 C   0  0  0  0  0  0
   -4.9632    0.5524   -2.3243 F   0  0  0  0  0  0
   -6.3012    0.2835    0.0691 F   0  0  0  0  0  0
   -0.4952    1.9926   -0.8601 H   0  0  0  0  0  0
   -0.4935    2.0397    0.8970 H   0  0  0  0  0  0
   -2.3918    1.0833    2.1926 H   0  0  0  0  0  0
   -4.8086    0.5884    2.2007 H   0  0  0  0  0  0
   -2.4132    1.0741   -2.1047 H   0  0  0  0  0  0
    3.0825    3.5195   -1.5578 H   0  0  0  0  0  0
    4.3941    5.5875   -1.6971 H   0  0  0  0  0  0
    5.8092    1.8845    1.3212 H   0  0  0  0  0  0
    7.9595    3.5276    2.0011 H   0  0  0  0  0  0
    9.9735    7.8049    2.0368 H   0  0  0  0  0  0
    8.3203    7.9100    1.4678 H   0  0  0  0  0  0
   11.0184    5.6935    2.1097 H   0  0  0  0  0  0
    5.2241   -0.0273   -0.0475 H   0  0  0  0  0  0
    1.4125   -1.9389    0.1120 H   0  0  0  0  0  0
    3.8722   -2.0727    0.0588 H   0  0  0  0  0  0
    1.6577    2.3436   -0.0261 H   0  0  0  0  0  0
   10.1179    4.2865    1.5825 H   0  0  0  0  0  0
  1 24  1  0  0  0
  1  2  1  0  0  0
  2  3  1  0  0  0
  2 29  1  0  0  0
  2 30  1  0  0  0
  3  8  2  0  0  0
  3  4  1  0  0  0
  4  7  2  0  0  0
  4 31  1  0  0  0
  5  7  1  0  0  0
  5  6  2  0  0  0
  5 28  1  0  0  0
  6  8  1  0  0  0
  6 27  1  0  0  0
  7 32  1  0  0  0
  8 33  1  0  0  0
  9 10  2  0  0  0
  9 21  1  0  0  0
  9 12  1  0  0  0
 10 11  1  0  0  0
 10 34  1  0  0  0
 11 14  2  0  0  0
 11 35  1  0  0  0
 12 13  2  0  0  0
 12 36  1  0  0  0
 13 17  1  0  0  0
 13 14  1  0  0  0
 14 15  1  0  0  0
 15 16  1  0  0  0
 16 17  2  0  0  0
 16 18  1  0  0  0
 17 37  1  0  0  0
 18 19  1  0  0  0
 18 20  2  0  0  0
 19 38  1  0  0  0
 19 39  1  0  0  0
 20 40  1  0  0  0
 20 45  1  0  0  0
 21 22  2  0  0  0
 21 26  1  0  0  0
 22 25  1  0  0  0
 22 41  1  0  0  0
 23 24  1  0  0  0
 23 25  2  0  0  0
 23 42  1  0  0  0
 24 26  2  0  0  0
 25 43  1  0  0  0
 26 44  1  0  0  0
M  CHG  1  20   1
M  END
> <chembl_id>
CHEMBL596765

> <chembl_pref_name>
None

> <s_m_source_file>
sdf/inactives_sanitized.sdf

> <i_m_source_file_index>
202

> <i_lp_mmshare_version>
49012

> <i_m_ct_stereo_status>
1

> <i_f3d_flags>
0

> <s_epik_input>
W2NIXTFjKEYpYyhGKVtjSF1bY0hdYzFbQ0gyXU9jKFtjSF0yKVtjSF1bY0hdW2NIXWMyLWMoW2NIXTMpW2NIXVtjSF1jKGMzNClzYyhbY0hdNCkvQyhbTkgyXSk9Ti9bSF0=

> <s_epik_cmdline>
J2VwaWtfcHl0aG9uJywgJy1waHQnLCAnMC41JywgJy1waCcsICc3LjUnLCAnLW50JywgJy1tYScsICcyMDAnLCAnLWltYWUnLCAnPGluZmlsZS5tYWU+JywgJy1vbWFlJywgJzxvdXRmaWxlLm1hZT4n

> <r_lp_tautomer_probability>
1

> <r_epik_Ionization_Penalty>
  0.0095

> <r_epik_Ionization_Penalty_Charging>
  0.0095

> <r_epik_Ionization_Penalty_Neutral>
  0.0000

> <r_epik_State_Penalty>
 -0.0000

> <r_epik_Charging_Adjusted_Penalty>
0.00945881282357717

> <i_epik_Tot_Q>
1

> <i_epik_Tot_abs_Q>
1

> <s_epik_Chemistry_Notes>
This compound has an imine and may undergo hydrolysis.

> <s_lp_Force_Field>
OPLS3e

> <r_lp_Energy>
32.74168

> <b_lp_Chiralities_Consistent>
1

> <s_lp_Variant>
sdf/inactives_sanitized.sdf:202-1

$$$$
sdf/inactives_sanitized.sdf:203
                    3D
 Schrodinger Suite 2020-1.
 32 34  0  0  1  0            999 V2000
   -2.2161    1.2886    0.0855 C   0  0  0  0  0  0
   -2.8848    0.0724   -0.2280 C   0  0  0  0  0  0
   -4.2979    0.2340   -0.2492 C   0  0  0  0  0  0
   -4.7171    1.5273    0.0282 C   0  0  0  0  0  0
   -3.3564    2.5974    0.3473 S   0  0  0  0  0  0
   -2.1076   -1.0727   -0.4646 C   0  0  0  0  0  0
   -0.7180   -0.9894   -0.3902 C   0  0  0  0  0  0
   -0.0650    0.2032   -0.0848 C   0  0  0  0  0  0
   -0.8173    1.3620    0.1602 C   0  0  0  0  0  0
   -6.0187    1.9899    0.0876 C   0  0  0  0  0  0
   -6.9639    1.1745    0.5374 N   0  3  0  0  0  0
   -6.2868    3.2260   -0.3137 N   0  0  0  0  0  0
    1.3151    0.1510   -0.0449 O   0  0  0  0  0  0
    2.0554    1.3350    0.2428 C   0  0  0  0  0  0
    3.5348    1.0268    0.1726 C   0  0  0  0  0  0
    4.5548    1.4114    1.0438 C   0  0  0  0  0  0
    5.8269    0.9614    0.6797 C   0  0  0  0  0  0
    5.8103    0.2214   -0.4878 C   0  0  0  0  0  0
    4.2113    0.0890   -1.1356 S   0  0  0  0  0  0
   -4.9782   -0.5759   -0.4688 H   0  0  0  0  0  0
   -2.5754   -2.0160   -0.7060 H   0  0  0  0  0  0
   -0.1316   -1.8777   -0.5767 H   0  0  0  0  0  0
   -0.3431    2.3011    0.4020 H   0  0  0  0  0  0
   -6.7194    0.2422    0.8376 H   0  0  0  0  0  0
   -7.2332    3.5749   -0.2742 H   0  0  0  0  0  0
   -5.5405    3.8128   -0.6577 H   0  0  0  0  0  0
    1.8212    2.1177   -0.4804 H   0  0  0  0  0  0
    1.8032    1.6927    1.2428 H   0  0  0  0  0  0
    4.3772    2.0065    1.9276 H   0  0  0  0  0  0
    6.7227    1.1691    1.2464 H   0  0  0  0  0  0
    6.6458   -0.2420   -0.9912 H   0  0  0  0  0  0
   -7.9208    1.4920    0.5865 H   0  0  0  0  0  0
  1  2  2  0  0  0
  1  5  1  0  0  0
  1  9  1  0  0  0
  2  3  1  0  0  0
  2  6  1  0  0  0
  3  4  2  0  0  0
  3 20  1  0  0  0
  4  5  1  0  0  0
  4 10  1  0  0  0
  6  7  2  0  0  0
  6 21  1  0  0  0
  7  8  1  0  0  0
  7 22  1  0  0  0
  8  9  2  0  0  0
  8 13  1  0  0  0
  9 23  1  0  0  0
 10 11  2  0  0  0
 10 12  1  0  0  0
 11 24  1  0  0  0
 11 32  1  0  0  0
 12 25  1  0  0  0
 12 26  1  0  0  0
 13 14  1  0  0  0
 14 15  1  0  0  0
 14 27  1  0  0  0
 14 28  1  0  0  0
 15 16  2  0  0  0
 15 19  1  0  0  0
 16 17  1  0  0  0
 16 29  1  0  0  0
 17 18  2  0  0  0
 17 30  1  0  0  0
 18 19  1  0  0  0
 18 31  1  0  0  0
M  CHG  1  11   1
M  END
> <chembl_id>
CHEMBL598157

> <chembl_pref_name>
None

> <s_m_source_file>
sdf/inactives_sanitized.sdf

> <i_m_source_file_index>
203

> <i_lp_mmshare_version>
49012

> <i_m_ct_stereo_status>
1

> <i_f3d_flags>
0

> <s_epik_input>
W0hdL049QyhbTkgyXSlcYyhzMSlbY0hdYyhjMTIpW2NIXVtjSF1jKFtjSF0yKU9bQ0gyXWMzW2NIXVtjSF1bY0hdczM=

> <s_epik_cmdline>
J2VwaWtfcHl0aG9uJywgJy1waHQnLCAnMC41JywgJy1waCcsICc3LjUnLCAnLW50JywgJy1tYScsICcyMDAnLCAnLWltYWUnLCAnPGluZmlsZS5tYWU+JywgJy1vbWFlJywgJzxvdXRmaWxlLm1hZT4n

> <r_lp_tautomer_probability>
1

> <r_epik_Ionization_Penalty>
  0.0095

> <r_epik_Ionization_Penalty_Charging>
  0.0095

> <r_epik_Ionization_Penalty_Neutral>
  0.0000

> <r_epik_State_Penalty>
 -0.0000

> <r_epik_Charging_Adjusted_Penalty>
0.00945881282357717

> <i_epik_Tot_Q>
1

> <i_epik_Tot_abs_Q>
1

> <s_epik_Chemistry_Notes>
This compound has an imine and may undergo hydrolysis.

> <s_lp_Force_Field>
OPLS3e

> <r_lp_Energy>
15.805282

> <b_lp_Chiralities_Consistent>
1

> <s_lp_Variant>
sdf/inactives_sanitized.sdf:203-1

$$$$
sdf/inactives_sanitized.sdf:204
                    3D
 Schrodinger Suite 2020-1.
 65 69  0  0  1  0            999 V2000
   -5.2334    1.7951   -0.9490 C   0  0  0  0  0  0
   -4.1017    0.9819   -1.6094 C   0  0  2  0  0  0
   -2.7208    1.6870   -1.4671 C   0  0  0  0  0  0
   -2.0835    1.6082   -0.0553 C   0  0  0  0  0  0
   -0.5347    1.4977   -0.0545 C   0  0  0  0  0  0
    0.0502    0.0524   -0.1687 C   0  0  2  0  0  0
    1.5323    0.0124   -0.0792 N   0  0  0  0  0  0
    2.3399    1.0413   -0.8008 C   0  0  0  0  0  0
    3.7643    0.5482   -1.1736 C   0  0  0  0  0  0
    4.3790   -0.1465    0.0286 C   0  0  0  0  0  0
    3.5630   -0.8852    0.8068 C   0  0  0  0  0  0
    2.1290   -0.9921    0.6430 C   0  0  0  0  0  0
    1.5231   -1.9456    1.1348 O   0  0  0  0  0  0
    5.8516   -0.2613    0.1739 C   0  0  0  0  0  0
    6.6628   -0.6233   -0.9156 C   0  0  0  0  0  0
    6.1215   -0.8992   -2.1252 F   0  0  0  0  0  0
    8.0461   -0.7232   -0.7679 C   0  0  0  0  0  0
    8.6409   -0.4635    0.4636 C   0  0  0  0  0  0
    7.8534   -0.1003    1.5539 C   0  0  0  0  0  0
    8.6075    0.2265    3.0742 Cl  0  0  0  0  0  0
    6.4660    0.0012    1.4120 C   0  0  0  0  0  0
    5.7179    0.3714    2.4799 F   0  0  0  0  0  0
   -0.5112   -0.7145   -1.3714 C   0  0  0  0  0  0
   -1.7206   -1.3998   -1.2410 C   0  0  0  0  0  0
   -2.3484   -1.9079   -2.3819 C   0  0  0  0  0  0
   -1.6788   -1.8165   -3.6082 C   0  0  0  0  0  0
   -0.4296   -1.1935   -3.6491 C   0  0  0  0  0  0
    0.1504   -0.6291   -2.5588 N   0  0  0  0  0  0
   -3.7329   -2.4574   -2.2753 C   0  0  0  0  0  0
   -4.8217   -1.7297   -2.8176 C   0  0  0  0  0  0
   -4.6704   -0.5478   -3.5617 N   0  0  0  0  0  0
   -4.4155    0.6980   -3.1019 C   0  0  0  0  0  0
   -4.4228    1.6422   -3.8913 O   0  0  0  0  0  0
   -6.1286   -2.2015   -2.6863 C   0  0  0  0  0  0
   -6.3840   -3.3779   -1.9957 C   0  0  0  0  0  0
   -5.3314   -4.1014   -1.4485 C   0  0  0  0  0  0
   -4.0040   -3.6679   -1.5817 C   0  0  0  0  0  0
   -2.9253   -4.5262   -0.9901 C   0  0  0  0  0  0
   -3.1231   -4.9894    0.1563 O   0  0  0  0  0  0
   -1.9074   -4.7460   -1.6847 O   0  5  0  0  0  0
   -6.1910    1.2775   -1.0236 H   0  0  0  0  0  0
   -5.3527    2.7751   -1.4134 H   0  0  0  0  0  0
   -5.0361    1.9545    0.1114 H   0  0  0  0  0  0
   -4.0532    0.0351   -1.0761 H   0  0  0  0  0  0
   -2.0264    1.2626   -2.1919 H   0  0  0  0  0  0
   -2.8018    2.7330   -1.7684 H   0  0  0  0  0  0
   -2.3782    2.5011    0.4979 H   0  0  0  0  0  0
   -2.4997    0.7781    0.5164 H   0  0  0  0  0  0
   -0.1359    2.1470   -0.8341 H   0  0  0  0  0  0
   -0.1760    1.9206    0.8851 H   0  0  0  0  0  0
   -0.3376   -0.4657    0.7110 H   0  0  0  0  0  0
    1.7965    1.4798   -1.6376 H   0  0  0  0  0  0
    2.4704    1.8575   -0.0889 H   0  0  0  0  0  0
    3.6627   -0.1660   -1.9916 H   0  0  0  0  0  0
    4.3838    1.3734   -1.5259 H   0  0  0  0  0  0
    3.9960   -1.4783    1.6003 H   0  0  0  0  0  0
    8.6596   -1.0062   -1.6108 H   0  0  0  0  0  0
    9.7131   -0.5434    0.5691 H   0  0  0  0  0  0
   -2.2213   -1.4447   -0.2844 H   0  0  0  0  0  0
   -2.1249   -2.2071   -4.5110 H   0  0  0  0  0  0
    0.1119   -1.1090   -4.5795 H   0  0  0  0  0  0
   -4.9052   -0.6269   -4.5402 H   0  0  0  0  0  0
   -6.9566   -1.6538   -3.1143 H   0  0  0  0  0  0
   -7.3980   -3.7344   -1.8903 H   0  0  0  0  0  0
   -5.5590   -5.0199   -0.9254 H   0  0  0  0  0  0
  1  2  1  0  0  0
  1 41  1  0  0  0
  1 42  1  0  0  0
  1 43  1  0  0  0
  2  3  1  0  0  0
  2 32  1  0  0  0
  2 44  1  0  0  0
  3  4  1  0  0  0
  3 45  1  0  0  0
  3 46  1  0  0  0
  4  5  1  0  0  0
  4 47  1  0  0  0
  4 48  1  0  0  0
  5  6  1  0  0  0
  5 49  1  0  0  0
  5 50  1  0  0  0
  6  7  1  0  0  0
  6 23  1  0  0  0
  6 51  1  0  0  0
  7  8  1  0  0  0
  7 12  1  0  0  0
  8  9  1  0  0  0
  8 52  1  0  0  0
  8 53  1  0  0  0
  9 10  1  0  0  0
  9 54  1  0  0  0
  9 55  1  0  0  0
 10 11  2  0  0  0
 10 14  1  0  0  0
 11 12  1  0  0  0
 11 56  1  0  0  0
 12 13  2  0  0  0
 14 15  2  0  0  0
 14 21  1  0  0  0
 15 16  1  0  0  0
 15 17  1  0  0  0
 17 18  2  0  0  0
 17 57  1  0  0  0
 18 19  1  0  0  0
 18 58  1  0  0  0
 19 20  1  0  0  0
 19 21  2  0  0  0
 21 22  1  0  0  0
 23 24  1  0  0  0
 23 28  2  0  0  0
 24 25  2  0  0  0
 24 59  1  0  0  0
 25 26  1  0  0  0
 25 29  1  0  0  0
 26 27  2  0  0  0
 26 60  1  0  0  0
 27 28  1  0  0  0
 27 61  1  0  0  0
 29 30  2  0  0  0
 29 37  1  0  0  0
 30 31  1  0  0  0
 30 34  1  0  0  0
 31 32  1  0  0  0
 31 62  1  0  0  0
 32 33  2  0  0  0
 34 35  2  0  0  0
 34 63  1  0  0  0
 35 36  1  0  0  0
 35 64  1  0  0  0
 36 37  2  0  0  0
 36 65  1  0  0  0
 37 38  1  0  0  0
 38 39  2  0  0  0
 38 40  1  0  0  0
M  CHG  1  40  -1
M  END
> <chembl_id>
CHEMBL4108690

> <chembl_pref_name>
None

> <i_m_ct_stereo_status>
1

> <s_m_source_file>
sdf/inactives_sanitized.sdf

> <i_m_source_file_index>
204

> <i_lp_mmshare_version>
49012

> <i_f3d_flags>
0

> <s_epik_input>
Tz1DKFtPSF0pYzFbY0hdW2NIXVtjSF1jKGMxYyhbY0hdYzIzKVtjSF1bY0hdbjMpW05IXUMoPU8pW0NASF0oW0NIM10pW0NIMl1bQ0gyXVtDSDJdW0NAQEhdMk40W0NIMl1bQ0gyXUMoPVtDSF1DND1PKWM1YyhGKVtjSF1bY0hdYyhDbCljNUY=

> <s_epik_cmdline>
J2VwaWtfcHl0aG9uJywgJy1waHQnLCAnMC41JywgJy1waCcsICc3LjUnLCAnLW50JywgJy1tYScsICcyMDAnLCAnLWltYWUnLCAnPGluZmlsZS5tYWU+JywgJy1vbWFlJywgJzxvdXRmaWxlLm1hZT4n

> <r_lp_tautomer_probability>
1

> <r_epik_Ionization_Penalty>
  0.0002

> <r_epik_Ionization_Penalty_Charging>
  0.0001

> <r_epik_Ionization_Penalty_Neutral>
  0.0001

> <r_epik_State_Penalty>
 -0.0000

> <r_epik_Charging_Adjusted_Penalty>
0.000130816707544054

> <i_epik_Tot_Q>
-1

> <i_epik_Tot_abs_Q>
1

> <s_lp_Force_Field>
OPLS3e

> <r_lp_Energy>
104.189887

> <b_lp_Chiralities_Consistent>
1

> <s_lp_Variant>
sdf/inactives_sanitized.sdf:204-1

$$$$
sdf/inactives_sanitized.sdf:205
                    3D
 Schrodinger Suite 2020-1.
 70 74  0  0  1  0            999 V2000
   -2.0078   -1.0267   -0.0897 C   0  0  0  0  0  0
   -0.5890   -0.9587   -0.0682 O   0  0  0  0  0  0
    0.0527    0.2341    0.0267 C   0  0  0  0  0  0
   -0.5328    1.3189    0.0939 O   0  0  0  0  0  0
    1.5480    0.1029    0.0244 C   0  0  0  0  0  0
    2.1871   -1.1458   -0.0059 C   0  0  0  0  0  0
    3.5765   -1.2334   -0.0204 C   0  0  0  0  0  0
    4.3585   -0.0771   -0.0126 C   0  0  0  0  0  0
    5.7510   -0.2547   -0.0228 N   0  0  0  0  0  0
    6.6085   -0.0197   -1.0423 C   0  0  0  0  0  0
    7.7991   -0.2966   -0.9011 O   0  0  0  0  0  0
    6.1441    0.5907   -2.3922 C   0  0  2  0  0  0
    6.2452   -0.4454   -3.5304 C   0  0  0  0  0  0
    6.9408    1.8892   -2.7165 C   0  0  0  0  0  0
    6.2809    2.8192   -3.7699 C   0  0  0  0  0  0
    6.5043    4.3375   -3.5287 C   0  0  0  0  0  0
    5.4805    5.0391   -2.5776 C   0  0  2  0  0  0
    5.6495    6.5113   -2.4816 N   0  0  0  0  0  0
    7.0202    7.1050   -2.5316 C   0  0  0  0  0  0
    7.1245    8.4846   -1.8268 C   0  0  0  0  0  0
    5.9313    9.3306   -2.2166 C   0  0  0  0  0  0
    4.7437    8.7245   -2.3950 C   0  0  0  0  0  0
    4.5301    7.2950   -2.3326 C   0  0  0  0  0  0
    3.3954    6.8506   -2.1487 O   0  0  0  0  0  0
    6.0048   10.7984   -2.1075 C   0  0  0  0  0  0
    6.2819   11.5882   -3.2351 C   0  0  0  0  0  0
    6.5682   10.8024   -4.9512 Br  0  0  0  0  0  0
    6.3547   12.9765   -3.1173 C   0  0  0  0  0  0
    6.1557   13.5885   -1.8817 C   0  0  0  0  0  0
    5.8823   12.8138   -0.7553 C   0  0  0  0  0  0
    5.6410   13.5876    0.7707 Cl  0  0  0  0  0  0
    5.8070   11.4222   -0.8662 C   0  0  0  0  0  0
    5.5434   10.6761    0.2342 F   0  0  0  0  0  0
    5.3805    4.3415   -1.2173 C   0  0  0  0  0  0
    6.1854    4.7005   -0.1289 C   0  0  0  0  0  0
    6.1579    3.9419    1.0418 C   0  0  0  0  0  0
    5.3480    2.8084    1.1216 C   0  0  0  0  0  0
    4.5228    2.4530    0.0496 C   0  0  0  0  0  0
    4.4986    3.2673   -1.0837 C   0  0  0  0  0  0
    3.7419    1.1906    0.0487 C   0  0  0  0  0  0
    2.3433    1.2579    0.0536 C   0  0  0  0  0  0
   -2.3263   -2.0649   -0.1835 H   0  0  0  0  0  0
   -2.4145   -0.4694   -0.9347 H   0  0  0  0  0  0
   -2.4324   -0.6226    0.8302 H   0  0  0  0  0  0
    1.6210   -2.0661   -0.0222 H   0  0  0  0  0  0
    4.0416   -2.2087   -0.0487 H   0  0  0  0  0  0
    6.1322   -0.7134    0.7917 H   0  0  0  0  0  0
    5.0919    0.8552   -2.3130 H   0  0  0  0  0  0
    5.6530   -1.3356   -3.3126 H   0  0  0  0  0  0
    7.2742   -0.7688   -3.6946 H   0  0  0  0  0  0
    5.8748   -0.0348   -4.4703 H   0  0  0  0  0  0
    7.0998    2.4504   -1.7961 H   0  0  0  0  0  0
    7.9514    1.6361   -3.0420 H   0  0  0  0  0  0
    6.6802    2.5527   -4.7494 H   0  0  0  0  0  0
    5.2104    2.6262   -3.8458 H   0  0  0  0  0  0
    7.5277    4.4903   -3.1864 H   0  0  0  0  0  0
    6.4449    4.8355   -4.4976 H   0  0  0  0  0  0
    4.5171    4.8750   -3.0660 H   0  0  0  0  0  0
    7.7920    6.4010   -2.2228 H   0  0  0  0  0  0
    7.2127    7.2876   -3.5898 H   0  0  0  0  0  0
    7.1048    8.3226   -0.7482 H   0  0  0  0  0  0
    8.0665    8.9789   -2.0671 H   0  0  0  0  0  0
    3.8691    9.3365   -2.5672 H   0  0  0  0  0  0
    6.5678   13.5821   -3.9860 H   0  0  0  0  0  0
    6.2156   14.6640   -1.8005 H   0  0  0  0  0  0
    6.8626    5.5386   -0.1961 H   0  0  0  0  0  0
    6.7956    4.2082    1.8718 H   0  0  0  0  0  0
    5.3769    2.1949    2.0103 H   0  0  0  0  0  0
    3.8718    2.9877   -1.9186 H   0  0  0  0  0  0
    1.8773    2.2338    0.0791 H   0  0  0  0  0  0
  1  2  1  0  0  0
  1 42  1  0  0  0
  1 43  1  0  0  0
  1 44  1  0  0  0
  2  3  1  0  0  0
  3  4  2  0  0  0
  3  5  1  0  0  0
  5  6  2  0  0  0
  5 41  1  0  0  0
  6  7  1  0  0  0
  6 45  1  0  0  0
  7  8  2  0  0  0
  7 46  1  0  0  0
  8  9  1  0  0  0
  8 40  1  0  0  0
  9 10  1  0  0  0
  9 47  1  0  0  0
 10 11  2  0  0  0
 10 12  1  0  0  0
 12 13  1  0  0  0
 12 14  1  0  0  0
 12 48  1  0  0  0
 13 49  1  0  0  0
 13 50  1  0  0  0
 13 51  1  0  0  0
 14 15  1  0  0  0
 14 52  1  0  0  0
 14 53  1  0  0  0
 15 16  1  0  0  0
 15 54  1  0  0  0
 15 55  1  0  0  0
 16 17  1  0  0  0
 16 56  1  0  0  0
 16 57  1  0  0  0
 17 18  1  0  0  0
 17 34  1  0  0  0
 17 58  1  0  0  0
 18 19  1  0  0  0
 18 23  1  0  0  0
 19 20  1  0  0  0
 19 59  1  0  0  0
 19 60  1  0  0  0
 20 21  1  0  0  0
 20 61  1  0  0  0
 20 62  1  0  0  0
 21 22  2  0  0  0
 21 25  1  0  0  0
 22 23  1  0  0  0
 22 63  1  0  0  0
 23 24  2  0  0  0
 25 26  2  0  0  0
 25 32  1  0  0  0
 26 27  1  0  0  0
 26 28  1  0  0  0
 28 29  2  0  0  0
 28 64  1  0  0  0
 29 30  1  0  0  0
 29 65  1  0  0  0
 30 31  1  0  0  0
 30 32  2  0  0  0
 32 33  1  0  0  0
 34 35  1  0  0  0
 34 39  2  0  0  0
 35 36  2  0  0  0
 35 66  1  0  0  0
 36 37  1  0  0  0
 36 67  1  0  0  0
 37 38  2  0  0  0
 37 68  1  0  0  0
 38 39  1  0  0  0
 38 40  1  0  0  0
 39 69  1  0  0  0
 40 41  2  0  0  0
 41 70  1  0  0  0
M  END
> <chembl_id>
CHEMBL4113927

> <chembl_pref_name>
None

> <i_m_ct_stereo_status>
1

> <s_m_source_file>
sdf/inactives_sanitized.sdf

> <i_m_source_file_index>
205

> <i_lp_mmshare_version>
49012

> <i_f3d_flags>
0

> <s_epik_input>
W0NIM11PQyg9TyljKFtjSF1bY0hdMSlbY0hdYyhjMTIpYzNbY0hdW2NIXVtjSF1jKFtjSF0zKVtDQEhdKFtDSDJdW0NIMl1bQ0gyXVtDQEBIXShbQ0gzXSlDKD1PKVtOSF0yKU40W0NIMl1bQ0gyXUMoPVtDSF1DND1PKWM1YyhCcilbY0hdW2NIXWMoQ2wpYzVG

> <s_epik_cmdline>
J2VwaWtfcHl0aG9uJywgJy1waHQnLCAnMC41JywgJy1waCcsICc3LjUnLCAnLW50JywgJy1tYScsICcyMDAnLCAnLWltYWUnLCAnPGluZmlsZS5tYWU+JywgJy1vbWFlJywgJzxvdXRmaWxlLm1hZT4n

> <r_lp_tautomer_probability>
1

> <r_epik_Ionization_Penalty>
  0.0000

> <r_epik_Ionization_Penalty_Charging>
  0.0000

> <r_epik_Ionization_Penalty_Neutral>
  0.0000

> <r_epik_State_Penalty>
 -0.0000

> <r_epik_Charging_Adjusted_Penalty>
0

> <i_epik_Tot_Q>
0

> <i_epik_Tot_abs_Q>
0

> <s_epik_Chemistry_Notes>
This compound has an ester and may undergo hydrolysis at high or low pH.

> <s_lp_Force_Field>
OPLS3e

> <r_lp_Energy>
84.371505

> <b_lp_Chiralities_Consistent>
1

> <s_lp_Variant>
sdf/inactives_sanitized.sdf:205-1

$$$$
sdf/inactives_sanitized.sdf:206
                    3D
 Schrodinger Suite 2020-1.
 72 76  0  0  1  0            999 V2000
   -4.5332   -6.9223    0.9050 C   0  0  0  0  0  0
   -4.4784   -5.7564    0.0947 O   0  0  0  0  0  0
   -5.6050   -5.2326   -0.4530 C   0  0  0  0  0  0
   -6.7297   -5.7152   -0.2895 O   0  0  0  0  0  0
   -5.3502   -3.9951   -1.2637 C   0  0  0  0  0  0
   -6.4319   -3.3092   -1.8313 C   0  0  0  0  0  0
   -6.2297   -2.1493   -2.5746 C   0  0  0  0  0  0
   -4.9416   -1.6462   -2.7639 C   0  0  0  0  0  0
   -4.8255   -0.4738   -3.5279 N   0  0  0  0  0  0
   -4.5160    0.7702   -3.0950 C   0  0  0  0  0  0
   -4.5240    1.7038   -3.8965 O   0  0  0  0  0  0
   -4.1503    1.0665   -1.6154 C   0  0  2  0  0  0
   -5.2497    1.9066   -0.9337 C   0  0  0  0  0  0
   -2.7523    1.7464   -1.5134 C   0  0  0  0  0  0
   -2.0881    1.6761   -0.1117 C   0  0  0  0  0  0
   -0.5398    1.5446   -0.1287 C   0  0  0  0  0  0
    0.0241    0.0898   -0.2368 C   0  0  2  0  0  0
    1.5017   -0.0039   -0.1225 N   0  0  0  0  0  0
    2.3609    1.0822   -0.6843 C   0  0  0  0  0  0
    3.7828    0.6007   -1.0807 C   0  0  0  0  0  0
    4.3326   -0.2840    0.0206 C   0  0  0  0  0  0
    3.4783   -1.0792    0.6904 C   0  0  0  0  0  0
    2.0465   -1.1095    0.4863 C   0  0  0  0  0  0
    1.3956   -2.0929    0.8441 O   0  0  0  0  0  0
    5.7957   -0.4623    0.1826 C   0  0  0  0  0  0
    6.4137    0.1122    1.3065 C   0  0  0  0  0  0
    5.6594    0.7890    2.2103 F   0  0  0  0  0  0
    7.7970   -0.0050    1.4990 C   0  0  0  0  0  0
    8.5698   -0.6931    0.5634 C   0  0  0  0  0  0
    7.9706   -1.2613   -0.5571 C   0  0  0  0  0  0
    6.5917   -1.1523   -0.7592 C   0  0  0  0  0  0
    6.0284   -1.7835   -1.9512 C   0  0  0  0  0  0
    5.5816   -2.2823   -2.8950 N   0  0  0  0  0  0
    8.4458    0.5843    2.6637 C   0  0  0  0  0  0
    8.9612    1.0521    3.5883 N   0  0  0  0  0  0
   -0.5457   -0.6644   -1.4424 C   0  0  0  0  0  0
    0.0762   -0.6515   -2.6972 C   0  0  0  0  0  0
   -0.5545   -1.2343   -3.7967 C   0  0  0  0  0  0
   -1.8184   -1.8081   -3.6544 C   0  0  0  0  0  0
   -2.4396   -1.8470   -2.4018 C   0  0  0  0  0  0
   -1.7614   -1.3348   -1.2948 C   0  0  0  0  0  0
   -3.8308   -2.3365   -2.2338 C   0  0  0  0  0  0
   -4.0558   -3.4936   -1.4779 C   0  0  0  0  0  0
   -3.5324   -7.1795    1.2522 H   0  0  0  0  0  0
   -4.9263   -7.7708    0.3434 H   0  0  0  0  0  0
   -5.1647   -6.7621    1.7802 H   0  0  0  0  0  0
   -7.4449   -3.6623   -1.6977 H   0  0  0  0  0  0
   -7.0848   -1.6373   -2.9931 H   0  0  0  0  0  0
   -5.1154   -0.5578   -4.4912 H   0  0  0  0  0  0
   -4.1048    0.1260   -1.0713 H   0  0  0  0  0  0
   -6.2180    1.4057   -0.9773 H   0  0  0  0  0  0
   -5.3648    2.8837   -1.4054 H   0  0  0  0  0  0
   -5.0216    2.0737    0.1194 H   0  0  0  0  0  0
   -2.0826    1.2994   -2.2475 H   0  0  0  0  0  0
   -2.8200    2.7895   -1.8279 H   0  0  0  0  0  0
   -2.3620    2.5797    0.4347 H   0  0  0  0  0  0
   -2.5061    0.8597    0.4782 H   0  0  0  0  0  0
   -0.1440    2.1812   -0.9199 H   0  0  0  0  0  0
   -0.1647    1.9717    0.8027 H   0  0  0  0  0  0
   -0.3807   -0.4111    0.6455 H   0  0  0  0  0  0
    1.8609    1.6452   -1.4716 H   0  0  0  0  0  0
    2.4936    1.7936    0.1318 H   0  0  0  0  0  0
    3.6939    0.0185   -1.9987 H   0  0  0  0  0  0
    4.4415    1.4447   -1.2882 H   0  0  0  0  0  0
    3.8775   -1.7787    1.4119 H   0  0  0  0  0  0
    9.6386   -0.7934    0.6936 H   0  0  0  0  0  0
    8.5942   -1.7890   -1.2661 H   0  0  0  0  0  0
    1.0262   -0.1580   -2.8367 H   0  0  0  0  0  0
   -0.0821   -1.2043   -4.7676 H   0  0  0  0  0  0
   -2.3234   -2.2052   -4.5230 H   0  0  0  0  0  0
   -2.2441   -1.3524   -0.3279 H   0  0  0  0  0  0
   -3.1975   -3.9999   -1.0586 H   0  0  0  0  0  0
  1  2  1  0  0  0
  1 44  1  0  0  0
  1 45  1  0  0  0
  1 46  1  0  0  0
  2  3  1  0  0  0
  3  4  2  0  0  0
  3  5  1  0  0  0
  5  6  2  0  0  0
  5 43  1  0  0  0
  6  7  1  0  0  0
  6 47  1  0  0  0
  7  8  2  0  0  0
  7 48  1  0  0  0
  8  9  1  0  0  0
  8 42  1  0  0  0
  9 10  1  0  0  0
  9 49  1  0  0  0
 10 11  2  0  0  0
 10 12  1  0  0  0
 12 13  1  0  0  0
 12 14  1  0  0  0
 12 50  1  0  0  0
 13 51  1  0  0  0
 13 52  1  0  0  0
 13 53  1  0  0  0
 14 15  1  0  0  0
 14 54  1  0  0  0
 14 55  1  0  0  0
 15 16  1  0  0  0
 15 56  1  0  0  0
 15 57  1  0  0  0
 16 17  1  0  0  0
 16 58  1  0  0  0
 16 59  1  0  0  0
 17 18  1  0  0  0
 17 36  1  0  0  0
 17 60  1  0  0  0
 18 19  1  0  0  0
 18 23  1  0  0  0
 19 20  1  0  0  0
 19 61  1  0  0  0
 19 62  1  0  0  0
 20 21  1  0  0  0
 20 63  1  0  0  0
 20 64  1  0  0  0
 21 22  2  0  0  0
 21 25  1  0  0  0
 22 23  1  0  0  0
 22 65  1  0  0  0
 23 24  2  0  0  0
 25 26  2  0  0  0
 25 31  1  0  0  0
 26 27  1  0  0  0
 26 28  1  0  0  0
 28 29  2  0  0  0
 28 34  1  0  0  0
 29 30  1  0  0  0
 29 66  1  0  0  0
 30 31  2  0  0  0
 30 67  1  0  0  0
 31 32  1  0  0  0
 32 33  3  0  0  0
 34 35  3  0  0  0
 36 37  1  0  0  0
 36 41  2  0  0  0
 37 38  2  0  0  0
 37 68  1  0  0  0
 38 39  1  0  0  0
 38 69  1  0  0  0
 39 40  2  0  0  0
 39 70  1  0  0  0
 40 41  1  0  0  0
 40 42  1  0  0  0
 41 71  1  0  0  0
 42 43  2  0  0  0
 43 72  1  0  0  0
M  END
> <chembl_id>
CHEMBL4109331

> <chembl_pref_name>
None

> <i_m_ct_stereo_status>
1

> <s_m_source_file>
sdf/inactives_sanitized.sdf

> <i_m_source_file_index>
206

> <i_lp_mmshare_version>
49012

> <i_f3d_flags>
0

> <s_epik_input>
W0NIM11PQyg9TyljKFtjSF1bY0hdMSlbY0hdYyhjMTIpYzNbY0hdW2NIXVtjSF1jKFtjSF0zKVtDQEhdKFtDSDJdW0NIMl1bQ0gyXVtDQEBIXShbQ0gzXSlDKD1PKVtOSF0yKU40W0NIMl1bQ0gyXUMoPVtDSF1DND1PKWM1YyhGKWMoQyNOKVtjSF1bY0hdYzVDI04=

> <s_epik_cmdline>
J2VwaWtfcHl0aG9uJywgJy1waHQnLCAnMC41JywgJy1waCcsICc3LjUnLCAnLW50JywgJy1tYScsICcyMDAnLCAnLWltYWUnLCAnPGluZmlsZS5tYWU+JywgJy1vbWFlJywgJzxvdXRmaWxlLm1hZT4n

> <r_lp_tautomer_probability>
1

> <r_epik_Ionization_Penalty>
  0.0000

> <r_epik_Ionization_Penalty_Charging>
  0.0000

> <r_epik_Ionization_Penalty_Neutral>
  0.0000

> <r_epik_State_Penalty>
 -0.0000

> <r_epik_Charging_Adjusted_Penalty>
0

> <i_epik_Tot_Q>
0

> <i_epik_Tot_abs_Q>
0

> <s_epik_Chemistry_Notes>
This compound has an ester and may undergo hydrolysis at high or low pH.

> <s_lp_Force_Field>
OPLS3e

> <r_lp_Energy>
91.906831

> <b_lp_Chiralities_Consistent>
1

> <s_lp_Variant>
sdf/inactives_sanitized.sdf:206-1

$$$$
 
                    3D
 Schrodinger Suite 2020-1.
 58 60  0  0  1  0            999 V2000
   -2.2848   -0.4679    0.5301 C   0  0  0  0  0  0
   -1.8085    0.6658    1.4629 C   0  0  0  0  0  0
   -0.5474    1.3015    0.8944 C   0  0  0  0  0  0
    0.3427    0.5391    0.2007 C   0  0  0  0  0  0
    0.1066   -0.8861   -0.0734 C   0  0  0  0  0  0
   -1.1502   -1.3566    0.1987 N   0  0  0  0  0  0
    1.0010   -1.6357   -0.4792 O   0  0  0  0  0  0
   -0.3167    2.7519    1.3037 C   0  0  0  0  0  0
    1.6606    1.1058   -0.3682 C   0  0  0  0  0  0
    2.8383    0.8295    0.5796 C   0  0  0  0  0  0
    2.9029    1.4018    1.6690 O   0  0  0  0  0  0
    3.7341   -0.0855    0.1683 N   0  0  0  0  0  0
    4.8020   -0.6377    1.0008 C   0  0  0  0  0  0
    4.2864   -1.5219    2.1434 C   0  0  0  0  0  0
   -1.4657   -2.7309    0.1544 N   0  0  1  0  0  0
   -1.7212   -3.1866   -1.2086 C   0  0  0  0  0  0
   -2.1687   -4.6374   -1.1869 C   0  0  0  0  0  0
   -3.5293   -4.9471   -1.1114 C   0  0  0  0  0  0
   -3.9387   -6.2781   -1.1045 C   0  0  0  0  0  0
   -2.9869   -7.2933   -1.1772 C   0  0  0  0  0  0
   -1.6290   -6.9903   -1.2573 C   0  0  0  0  0  0
   -1.2187   -5.6596   -1.2641 C   0  0  0  0  0  0
    3.4583   -2.6032    1.8129 C   0  0  0  0  0  0
    2.9275   -3.4278    2.8018 C   0  0  0  0  0  0
    3.2335   -3.1896    4.1391 C   0  0  0  0  0  0
    4.0608   -2.1224    4.4837 C   0  0  0  0  0  0
    4.5920   -1.2798    3.4992 C   0  0  0  0  0  0
    5.4419   -0.0968    3.9481 C   0  0  0  0  0  0
    6.9413   -0.3084    3.7211 N   0  3  0  0  0  0
    1.8849   -4.7330    2.3678 Cl  0  0  0  0  0  0
   -3.0953   -1.0159    1.0149 H   0  0  0  0  0  0
   -2.6906   -0.0620   -0.3983 H   0  0  0  0  0  0
   -2.5989    1.4031    1.6094 H   0  0  0  0  0  0
   -1.5795    0.2548    2.4475 H   0  0  0  0  0  0
   -0.5847    2.8913    2.3515 H   0  0  0  0  0  0
   -0.9463    3.4116    0.7063 H   0  0  0  0  0  0
    0.7155    3.0815    1.2029 H   0  0  0  0  0  0
    1.8546    0.6926   -1.3608 H   0  0  0  0  0  0
    1.5924    2.1789   -0.5411 H   0  0  0  0  0  0
    3.5952   -0.5225   -0.7317 H   0  0  0  0  0  0
    5.4313   -1.2590    0.3624 H   0  0  0  0  0  0
    5.4504    0.1699    1.3375 H   0  0  0  0  0  0
   -0.6748   -3.2236    0.5450 H   0  0  0  0  0  0
   -2.5069   -2.5640   -1.6409 H   0  0  0  0  0  0
   -0.8085   -3.0858   -1.7979 H   0  0  0  0  0  0
   -4.2675   -4.1602   -1.0560 H   0  0  0  0  0  0
   -4.9890   -6.5224   -1.0443 H   0  0  0  0  0  0
   -3.3049   -8.3255   -1.1727 H   0  0  0  0  0  0
   -0.8986   -7.7837   -1.3146 H   0  0  0  0  0  0
   -0.1661   -5.4244   -1.3271 H   0  0  0  0  0  0
    3.2121   -2.7965    0.7784 H   0  0  0  0  0  0
    2.8247   -3.8242    4.9119 H   0  0  0  0  0  0
    4.2778   -1.9473    5.5277 H   0  0  0  0  0  0
    5.1902    0.8289    3.4294 H   0  0  0  0  0  0
    5.3662    0.0865    5.0211 H   0  0  0  0  0  0
    7.4570    0.4989    4.0416 H   0  0  0  0  0  0
    7.1310   -0.4426    2.7384 H   0  0  0  0  0  0
    7.2596   -1.1185    4.2337 H   0  0  0  0  0  0
  1  2  1  0  0  0
  1  6  1  0  0  0
  1 31  1  0  0  0
  1 32  1  0  0  0
  2  3  1  0  0  0
  2 33  1  0  0  0
  2 34  1  0  0  0
  3  4  2  0  0  0
  3  8  1  0  0  0
  4  5  1  0  0  0
  4  9  1  0  0  0
  5  6  1  0  0  0
  5  7  2  0  0  0
  6 15  1  0  0  0
  8 35  1  0  0  0
  8 36  1  0  0  0
  8 37  1  0  0  0
  9 10  1  0  0  0
  9 38  1  0  0  0
  9 39  1  0  0  0
 10 11  2  0  0  0
 10 12  1  0  0  0
 12 13  1  0  0  0
 12 40  1  0  0  0
 13 14  1  0  0  0
 13 41  1  0  0  0
 13 42  1  0  0  0
 14 23  2  0  0  0
 14 27  1  0  0  0
 15 16  1  0  0  0
 15 43  1  0  0  0
 16 17  1  0  0  0
 16 44  1  0  0  0
 16 45  1  0  0  0
 17 18  2  0  0  0
 17 22  1  0  0  0
 18 19  1  0  0  0
 18 46  1  0  0  0
 19 20  2  0  0  0
 19 47  1  0  0  0
 20 21  1  0  0  0
 20 48  1  0  0  0
 21 22  2  0  0  0
 21 49  1  0  0  0
 22 50  1  0  0  0
 23 24  1  0  0  0
 23 51  1  0  0  0
 24 25  2  0  0  0
 24 30  1  0  0  0
 25 26  1  0  0  0
 25 52  1  0  0  0
 26 27  2  0  0  0
 26 53  1  0  0  0
 27 28  1  0  0  0
 28 29  1  0  0  0
 28 54  1  0  0  0
 28 55  1  0  0  0
 29 56  1  0  0  0
 29 57  1  0  0  0
 29 58  1  0  0  0
M  CHG  1  29   1
M  END
> <chembl_id>
CHEMBL4455063

> <chembl_pref_name>
None

> <s_m_source_file>
sdf/inactives_sanitized.sdf

> <i_m_source_file_index>
207

> <i_lp_mmshare_version>
49012

> <i_m_ct_stereo_status>
1

> <i_f3d_flags>
0

> <s_epik_input>
W2NIXTFbY0hdW2NIXVtjSF1bY0hdYzFbQ0gyXVtOSF1OKFtDSDJdW0NIMl0yKUMoPU8pQyg9QzJbQ0gzXSlbQ0gyXUMoPU8pW05IXVtDSDJdYzNbY0hdYyhDbClbY0hdW2NIXWMzW0NIMl1bTkgyXQ==

> <s_epik_cmdline>
J2VwaWtfcHl0aG9uJywgJy1waHQnLCAnMC41JywgJy1waCcsICc3LjUnLCAnLW50JywgJy1tYScsICcyMDAnLCAnLWltYWUnLCAnPGluZmlsZS5tYWU+JywgJy1vbWFlJywgJzxvdXRmaWxlLm1hZT4n

> <r_epik_Ionization_Penalty>
  0.0915

> <r_epik_Ionization_Penalty_Charging>
  0.0915

> <r_epik_Ionization_Penalty_Neutral>
  0.0000

> <r_epik_State_Penalty>
  0.0818

> <r_epik_Charging_Adjusted_Penalty>
0.173250828216732

> <i_epik_Tot_Q>
1

> <i_epik_Tot_abs_Q>
1

> <s_lp_Force_Field>
OPLS3e

> <r_lp_Energy>
49.746787

> <b_lp_Chiralities_Consistent>
1

> <s_lp_Variant>
 -1

$$$$
sdf/inactives_sanitized.sdf:208
                    3D
 Schrodinger Suite 2020-1.
 67 70  0  0  1  0            999 V2000
   -0.1570    1.9884    0.3440 S   0  0  0  0  0  0
    0.6157    2.8737    1.2240 O   0  0  0  0  0  0
   -1.6223    2.0400    0.3621 O   0  0  0  0  0  0
    0.4551    1.8115   -3.7508 C   0  0  0  0  0  0
   -0.1052    1.5663   -2.4696 C   0  0  0  0  0  0
    0.3880    2.2891   -1.3573 C   0  0  0  0  0  0
    1.3622    3.2751   -1.5477 C   0  0  0  0  0  0
    1.8623    3.5484   -2.8131 C   0  0  0  0  0  0
    1.4132    2.8208   -3.9060 C   0  0  0  0  0  0
    0.3264    0.3310    0.7215 N   0  0  2  0  0  0
    1.7674   -0.0381    0.7576 C   0  0  1  0  0  0
    2.0288   -1.1366    1.8245 C   0  0  0  0  0  0
    2.1864   -0.4582   -0.6835 C   0  0  0  0  0  0
    1.4372   -1.2364   -1.2840 O   0  0  0  0  0  0
    3.3825   -0.0663   -1.2124 N   0  0  0  0  0  0
    3.6272   -0.4050   -2.6374 C   0  0  0  0  0  0
    5.1442   -0.4288   -2.9371 C   0  0  0  0  0  0
    5.8549    0.7485   -2.4459 N   0  0  0  0  0  0
    5.6656    0.8977   -1.0060 C   0  0  0  0  0  0
    4.1831    1.0013   -0.5690 C   0  0  0  0  0  0
   -1.2687    0.5852   -2.2892 C   0  0  0  0  0  0
    1.4462   -2.4544    1.5459 N   0  0  0  0  0  0
    0.2012   -2.8465    1.8765 C   0  0  0  0  0  0
   -0.1366   -4.1837    1.4498 C   0  0  0  0  0  0
   -0.5995   -2.1374    2.4891 O   0  0  0  0  0  0
   -1.6578   -4.8938    1.9253 S   0  0  0  0  0  0
   -1.2984   -6.3451    1.0470 C   0  0  0  0  0  0
   -0.0693   -6.2731    0.4085 C   0  0  0  0  0  0
    0.5839   -5.0555    0.6259 C   0  0  0  0  0  0
    0.0990    1.0919   -4.9137 N   0  0  0  0  0  0
    0.2540   -0.2556   -5.0501 C   0  0  0  0  0  0
   -0.0760   -0.6068   -6.5003 C   0  0  0  0  0  0
   -0.7256    0.6249   -7.0801 C   0  0  0  0  0  0
   -0.2244    1.7389   -6.1904 C   0  0  0  0  0  0
    0.6060   -1.0747   -4.2020 O   0  0  0  0  0  0
    5.5372    1.9635   -3.1932 C   0  0  0  0  0  0
   -2.4136   -7.6514    1.0375 Cl  0  0  0  0  0  0
    1.7481    3.8432   -0.7149 H   0  0  0  0  0  0
    2.6136    4.3132   -2.9443 H   0  0  0  0  0  0
    1.8426    3.0322   -4.8743 H   0  0  0  0  0  0
   -0.3156   -0.4093    0.4250 H   0  0  0  0  0  0
    2.2855    0.8544    1.0988 H   0  0  0  0  0  0
    3.1055   -1.2837    1.9179 H   0  0  0  0  0  0
    1.7058   -0.7835    2.8065 H   0  0  0  0  0  0
    3.2511   -1.3925   -2.9102 H   0  0  0  0  0  0
    3.1924    0.3683   -3.2714 H   0  0  0  0  0  0
    5.5928   -1.2876   -2.4350 H   0  0  0  0  0  0
    5.3220   -0.5536   -4.0060 H   0  0  0  0  0  0
    6.1047    0.0063   -0.5547 H   0  0  0  0  0  0
    6.2347    1.7532   -0.6401 H   0  0  0  0  0  0
    3.8263    1.9792   -0.8923 H   0  0  0  0  0  0
    4.2276    0.9145    0.5157 H   0  0  0  0  0  0
   -2.1093    1.0802   -1.8082 H   0  0  0  0  0  0
   -0.9819   -0.2606   -1.6667 H   0  0  0  0  0  0
   -1.6760    0.2034   -3.2228 H   0  0  0  0  0  0
    2.0451   -3.1142    1.0714 H   0  0  0  0  0  0
    0.3376   -7.0704   -0.1957 H   0  0  0  0  0  0
    1.5477   -4.8234    0.1962 H   0  0  0  0  0  0
    0.8622   -0.8256   -7.0124 H   0  0  0  0  0  0
   -0.7125   -1.4890   -6.5777 H   0  0  0  0  0  0
   -0.4952    0.7895   -8.1331 H   0  0  0  0  0  0
   -1.8107    0.5437   -6.9929 H   0  0  0  0  0  0
    0.6690    2.2057   -6.6071 H   0  0  0  0  0  0
   -0.9700    2.5233   -6.0539 H   0  0  0  0  0  0
    6.1416    2.7987   -2.8380 H   0  0  0  0  0  0
    4.4875    2.2420   -3.0980 H   0  0  0  0  0  0
    5.7555    1.8276   -4.2530 H   0  0  0  0  0  0
  1  2  2  0  0  0
  1  3  2  0  0  0
  1  6  1  0  0  0
  1 10  1  0  0  0
  4  5  2  0  0  0
  4  9  1  0  0  0
  4 30  1  0  0  0
  5  6  1  0  0  0
  5 21  1  0  0  0
  6  7  2  0  0  0
  7  8  1  0  0  0
  7 38  1  0  0  0
  8  9  2  0  0  0
  8 39  1  0  0  0
  9 40  1  0  0  0
 10 11  1  0  0  0
 10 41  1  0  0  0
 11 12  1  0  0  0
 11 13  1  0  0  0
 11 42  1  0  0  0
 12 22  1  0  0  0
 12 43  1  0  0  0
 12 44  1  0  0  0
 13 14  2  0  0  0
 13 15  1  0  0  0
 15 16  1  0  0  0
 15 20  1  0  0  0
 16 17  1  0  0  0
 16 45  1  0  0  0
 16 46  1  0  0  0
 17 18  1  0  0  0
 17 47  1  0  0  0
 17 48  1  0  0  0
 18 19  1  0  0  0
 18 36  1  0  0  0
 19 20  1  0  0  0
 19 49  1  0  0  0
 19 50  1  0  0  0
 20 51  1  0  0  0
 20 52  1  0  0  0
 21 53  1  0  0  0
 21 54  1  0  0  0
 21 55  1  0  0  0
 22 23  1  0  0  0
 22 56  1  0  0  0
 23 24  1  0  0  0
 23 25  2  0  0  0
 24 26  1  0  0  0
 24 29  2  0  0  0
 26 27  1  0  0  0
 27 28  2  0  0  0
 27 37  1  0  0  0
 28 29  1  0  0  0
 28 57  1  0  0  0
 29 58  1  0  0  0
 30 31  1  0  0  0
 30 34  1  0  0  0
 31 32  1  0  0  0
 31 35  2  0  0  0
 32 33  1  0  0  0
 32 59  1  0  0  0
 32 60  1  0  0  0
 33 34  1  0  0  0
 33 61  1  0  0  0
 33 62  1  0  0  0
 34 63  1  0  0  0
 34 64  1  0  0  0
 36 65  1  0  0  0
 36 66  1  0  0  0
 36 67  1  0  0  0
M  END
> <chembl_id>
CHEMBL3091519

> <chembl_pref_name>
None

> <i_m_ct_stereo_status>
1

> <s_m_source_file>
sdf/inactives_sanitized.sdf

> <i_m_source_file_index>
208

> <i_lp_mmshare_version>
49012

> <i_f3d_flags>
0

> <s_epik_input>
W0NIMl0xW0NIMl1bQ0gyXUMoPU8pTjFjMmMoW0NIM10pYyhbY0hdW2NIXVtjSF0yKVMoPU8pKD1PKVtOSF1bQ0BIXShDKD1PKU4zW0NIMl1bQ0gyXU4oW0NIM10pW0NIMl1bQ0gyXTMpW0NIMl1bTkhdQyg9TyljNHNjKENsKVtjSF1bY0hdNA==

> <s_epik_cmdline>
J2VwaWtfcHl0aG9uJywgJy1waHQnLCAnMC41JywgJy1waCcsICc3LjUnLCAnLW50JywgJy1tYScsICcyMDAnLCAnLWltYWUnLCAnPGluZmlsZS5tYWU+JywgJy1vbWFlJywgJzxvdXRmaWxlLm1hZT4n

> <r_epik_Ionization_Penalty>
  0.3465

> <r_epik_Ionization_Penalty_Charging>
  0.0000

> <r_epik_Ionization_Penalty_Neutral>
  0.3465

> <r_epik_State_Penalty>
  0.3375

> <r_epik_Charging_Adjusted_Penalty>
0.337502016256684

> <i_epik_Tot_Q>
0

> <i_epik_Tot_abs_Q>
0

> <s_lp_Force_Field>
OPLS3e

> <r_lp_Energy>
45.426471

> <b_lp_Chiralities_Consistent>
1

> <s_lp_Variant>
sdf/inactives_sanitized.sdf:208-1

$$$$
sdf/inactives_sanitized.sdf:208
                    3D
 Schrodinger Suite 2020-1.
 68 71  0  0  1  0            999 V2000
   -0.6450    1.8493    0.0129 S   0  0  0  0  0  0
   -2.0951    1.6537   -0.0864 O   0  0  0  0  0  0
    0.0672    2.6564   -0.9857 O   0  0  0  0  0  0
   -0.1929    2.4496    4.0785 C   0  0  0  0  0  0
   -0.5751    1.8591    2.8463 C   0  0  0  0  0  0
   -0.3048    2.5501    1.6419 C   0  0  0  0  0  0
    0.2770    3.8208    1.6841 C   0  0  0  0  0  0
    0.5898    4.4187    2.8980 C   0  0  0  0  0  0
    0.3557    3.7386    4.0862 C   0  0  0  0  0  0
    0.1177    0.2629    0.0414 N   0  0  1  0  0  0
    1.5996    0.1427    0.0464 C   0  0  1  0  0  0
    2.0611   -0.7660    1.2187 C   0  0  0  0  0  0
    2.0771   -0.3377   -1.3570 C   0  0  0  0  0  0
    1.2516   -0.6963   -2.2049 O   0  0  0  0  0  0
    3.4184   -0.3861   -1.5930 N   0  0  0  0  0  0
    4.2684    0.7299   -1.1326 C   0  0  0  0  0  0
    4.2182    1.8747   -2.1724 C   0  0  0  0  0  0
    4.7200    1.3346   -3.5293 N   0  3  0  0  0  0
    3.8666    0.1257   -3.9738 C   0  0  0  0  0  0
    3.8946   -0.9625   -2.8697 C   0  0  0  0  0  0
   -1.3374    0.5289    2.8246 C   0  0  0  0  0  0
    1.5406   -2.1374    1.1886 N   0  0  0  0  0  0
    2.1716   -3.2042    0.6617 C   0  0  0  0  0  0
    1.4203   -4.4357    0.7255 C   0  0  0  0  0  0
    3.2907   -3.1506    0.1473 O   0  0  0  0  0  0
    2.0950   -5.9039    0.0671 S   0  0  0  0  0  0
    0.6786   -6.8001    0.5111 C   0  0  0  0  0  0
   -0.2652   -5.9998    1.1370 C   0  0  0  0  0  0
    0.1481   -4.6689    1.2600 C   0  0  0  0  0  0
   -0.3392    1.8040    5.3289 N   0  0  0  0  0  0
    0.2155    0.5941    5.6285 C   0  0  0  0  0  0
   -0.0318    0.3352    7.1140 C   0  0  0  0  0  0
   -1.0363    1.3735    7.5471 C   0  0  0  0  0  0
   -0.8686    2.4724    6.5235 C   0  0  0  0  0  0
    0.8253   -0.1743    4.8840 O   0  0  0  0  0  0
    4.6821    2.4426   -4.5997 C   0  0  0  0  0  0
    0.5711   -8.4791    0.1643 Cl  0  0  0  0  0  0
    0.4840    4.3650    0.7746 H   0  0  0  0  0  0
    1.0292    5.4052    2.9173 H   0  0  0  0  0  0
    0.6372    4.2156    5.0138 H   0  0  0  0  0  0
   -0.4179   -0.5183    0.4294 H   0  0  0  0  0  0
    1.9921    1.1430    0.2291 H   0  0  0  0  0  0
    3.1512   -0.7730    1.2832 H   0  0  0  0  0  0
    1.7340   -0.3217    2.1595 H   0  0  0  0  0  0
    4.1394    1.0019   -0.0849 H   0  0  0  0  0  0
    5.2934    0.3551   -1.1416 H   0  0  0  0  0  0
    3.2126    2.2761   -2.3170 H   0  0  0  0  0  0
    4.8898    2.6895   -1.8988 H   0  0  0  0  0  0
    2.8579    0.4805   -4.1951 H   0  0  0  0  0  0
    4.3171   -0.2408   -4.8971 H   0  0  0  0  0  0
    4.9396   -1.2428   -2.7297 H   0  0  0  0  0  0
    3.4036   -1.9054   -3.1169 H   0  0  0  0  0  0
   -2.1128    0.5135    2.0635 H   0  0  0  0  0  0
   -1.8772    0.3529    3.7545 H   0  0  0  0  0  0
   -0.6660   -0.3096    2.6446 H   0  0  0  0  0  0
    0.6528   -2.2855    1.6459 H   0  0  0  0  0  0
   -1.2179   -6.3650    1.4911 H   0  0  0  0  0  0
   -0.4634   -3.9075    1.7219 H   0  0  0  0  0  0
   -0.3762   -0.6821    7.3049 H   0  0  0  0  0  0
    0.9147    0.4713    7.6390 H   0  0  0  0  0  0
   -2.0445    0.9599    7.4816 H   0  0  0  0  0  0
   -0.8942    1.7237    8.5700 H   0  0  0  0  0  0
   -1.8097    2.9782    6.3048 H   0  0  0  0  0  0
   -0.1630    3.2297    6.8673 H   0  0  0  0  0  0
    3.6468    2.7672   -4.7173 H   0  0  0  0  0  0
    5.0757    2.0125   -5.5216 H   0  0  0  0  0  0
    5.3204    3.2536   -4.2466 H   0  0  0  0  0  0
    5.6730    1.0200   -3.4104 H   0  0  0  0  0  0
  1  2  2  0  0  0
  1  3  2  0  0  0
  1  6  1  0  0  0
  1 10  1  0  0  0
  4  5  2  0  0  0
  4  9  1  0  0  0
  4 30  1  0  0  0
  5  6  1  0  0  0
  5 21  1  0  0  0
  6  7  2  0  0  0
  7  8  1  0  0  0
  7 38  1  0  0  0
  8  9  2  0  0  0
  8 39  1  0  0  0
  9 40  1  0  0  0
 10 11  1  0  0  0
 10 41  1  0  0  0
 11 12  1  0  0  0
 11 13  1  0  0  0
 11 42  1  0  0  0
 12 22  1  0  0  0
 12 43  1  0  0  0
 12 44  1  0  0  0
 13 14  2  0  0  0
 13 15  1  0  0  0
 15 16  1  0  0  0
 15 20  1  0  0  0
 16 17  1  0  0  0
 16 45  1  0  0  0
 16 46  1  0  0  0
 17 18  1  0  0  0
 17 47  1  0  0  0
 17 48  1  0  0  0
 18 19  1  0  0  0
 18 36  1  0  0  0
 18 68  1  0  0  0
 19 20  1  0  0  0
 19 49  1  0  0  0
 19 50  1  0  0  0
 20 51  1  0  0  0
 20 52  1  0  0  0
 21 53  1  0  0  0
 21 54  1  0  0  0
 21 55  1  0  0  0
 22 23  1  0  0  0
 22 56  1  0  0  0
 23 24  1  0  0  0
 23 25  2  0  0  0
 24 26  1  0  0  0
 24 29  2  0  0  0
 26 27  1  0  0  0
 27 28  2  0  0  0
 27 37  1  0  0  0
 28 29  1  0  0  0
 28 57  1  0  0  0
 29 58  1  0  0  0
 30 31  1  0  0  0
 30 34  1  0  0  0
 31 32  1  0  0  0
 31 35  2  0  0  0
 32 33  1  0  0  0
 32 59  1  0  0  0
 32 60  1  0  0  0
 33 34  1  0  0  0
 33 61  1  0  0  0
 33 62  1  0  0  0
 34 63  1  0  0  0
 34 64  1  0  0  0
 36 65  1  0  0  0
 36 66  1  0  0  0
 36 67  1  0  0  0
M  CHG  1  18   1
M  END
> <chembl_id>
CHEMBL3091519

> <chembl_pref_name>
None

> <i_m_ct_stereo_status>
1

> <s_m_source_file>
sdf/inactives_sanitized.sdf

> <i_m_source_file_index>
208

> <i_lp_mmshare_version>
49012

> <i_f3d_flags>
0

> <s_epik_input>
W0NIMl0xW0NIMl1bQ0gyXUMoPU8pTjFjMmMoW0NIM10pYyhbY0hdW2NIXVtjSF0yKVMoPU8pKD1PKVtOSF1bQ0BIXShDKD1PKU4zW0NIMl1bQ0gyXU4oW0NIM10pW0NIMl1bQ0gyXTMpW0NIMl1bTkhdQyg9TyljNHNjKENsKVtjSF1bY0hdNA==

> <s_epik_cmdline>
J2VwaWtfcHl0aG9uJywgJy1waHQnLCAnMC41JywgJy1waCcsICc3LjUnLCAnLW50JywgJy1tYScsICcyMDAnLCAnLWltYWUnLCAnPGluZmlsZS5tYWU+JywgJy1vbWFlJywgJzxvdXRmaWxlLm1hZT4n

> <r_epik_Ionization_Penalty>
  0.4966

> <r_epik_Ionization_Penalty_Charging>
  0.4886

> <r_epik_Ionization_Penalty_Neutral>
  0.0080

> <r_epik_State_Penalty>
  0.4942

> <r_epik_Charging_Adjusted_Penalty>
0.982820898502922

> <i_epik_Tot_Q>
1

> <i_epik_Tot_abs_Q>
1

> <s_lp_Force_Field>
OPLS3e

> <r_lp_Energy>
36.795689

> <b_lp_Chiralities_Consistent>
1

> <s_lp_Variant>
sdf/inactives_sanitized.sdf:208-2

$$$$
 
                    3D
 Schrodinger Suite 2020-1.
 67 71  0  0  1  0            999 V2000
   -0.0732    0.2047    0.0419 N   0  0  0  0  0  0
    1.4057    0.3051    0.1472 C   0  0  2  0  0  0
    1.9027    0.0429    1.5710 C   0  0  0  0  0  0
    1.1340    0.1401    2.7037 N   0  0  0  0  0  0
    1.9497   -0.1827    3.7514 C   0  0  0  0  0  0
    3.1906   -0.4449    3.1798 C   0  0  0  0  0  0
    3.1351   -0.3063    1.8615 N   0  0  0  0  0  0
    1.9860    1.6183   -0.4414 C   0  0  0  0  0  0
    4.4516   -0.8639    3.8640 C   0  0  0  0  0  0
    4.3607   -1.9167    4.7803 C   0  0  0  0  0  0
    5.4936   -2.4016    5.4311 C   0  0  0  0  0  0
    6.7504   -1.8317    5.1806 C   0  0  0  0  0  0
    6.8466   -0.7732    4.2743 C   0  0  0  0  0  0
    5.7101   -0.2830    3.6147 C   0  0  0  0  0  0
    7.9494   -2.2477    5.7846 N   0  0  0  0  0  0
    8.1606   -3.2101    6.7676 C   0  0  0  0  0  0
    9.4824   -3.2645    7.0293 O   0  0  0  0  0  0
    9.9966   -4.1662    7.9997 C   0  0  0  0  0  0
    7.3126   -3.9076    7.3287 O   0  0  0  0  0  0
    3.4887    1.5901   -0.6667 C   0  0  0  0  0  0
    4.3634    2.4202   -0.0735 C   0  0  0  0  0  0
    5.8685    2.3959   -0.2791 C   0  0  0  0  0  0
    6.6905    2.3229    1.0258 C   0  0  0  0  0  0
    6.6531    0.9546    1.7223 C   0  0  0  0  0  0
    7.3732    0.0440    1.3090 O   0  0  0  0  0  0
    5.8213    0.8408    2.7778 N   0  0  0  0  0  0
   -0.5896   -1.0923   -0.1768 C   0  0  0  0  0  0
   -1.9521   -1.2404   -0.2215 O   0  0  0  0  0  0
   -2.8232   -0.0992   -0.2560 C   0  0  2  0  0  0
   -2.3058    1.0433    0.6384 C   0  0  0  0  0  0
   -0.8719    1.4299    0.2396 C   0  0  0  0  0  0
    0.0720   -2.1249   -0.2906 O   0  0  0  0  0  0
   -4.2655   -0.4814    0.0684 C   0  0  0  0  0  0
   -4.5620   -1.5311    0.9484 C   0  0  0  0  0  0
   -5.8876   -1.8594    1.2333 C   0  0  0  0  0  0
   -6.9273   -1.1403    0.6446 C   0  0  0  0  0  0
   -6.6415   -0.0906   -0.2292 C   0  0  0  0  0  0
   -5.3151    0.2373   -0.5150 C   0  0  0  0  0  0
   -7.9272    0.8029   -0.9555 Cl  0  0  0  0  0  0
    1.8312   -0.4752   -0.4876 H   0  0  0  0  0  0
    0.1559    0.3876    2.7500 H   0  0  0  0  0  0
    1.5876   -0.1955    4.7689 H   0  0  0  0  0  0
    1.5311    1.8117   -1.4138 H   0  0  0  0  0  0
    1.7261    2.4674    0.1928 H   0  0  0  0  0  0
    3.4058   -2.3804    4.9827 H   0  0  0  0  0  0
    5.3625   -3.2226    6.1169 H   0  0  0  0  0  0
    7.8086   -0.3145    4.0906 H   0  0  0  0  0  0
    8.7753   -1.7661    5.4611 H   0  0  0  0  0  0
   11.0781   -4.0525    8.0737 H   0  0  0  0  0  0
    9.7819   -5.2002    7.7257 H   0  0  0  0  0  0
    9.5663   -3.9719    8.9834 H   0  0  0  0  0  0
    3.8508    0.8356   -1.3505 H   0  0  0  0  0  0
    3.9957    3.1727    0.6095 H   0  0  0  0  0  0
    6.1411    1.5774   -0.9485 H   0  0  0  0  0  0
    6.1327    3.3138   -0.8048 H   0  0  0  0  0  0
    7.7353    2.5427    0.8013 H   0  0  0  0  0  0
    6.3695    3.1073    1.7140 H   0  0  0  0  0  0
    5.1608    1.5859    2.9434 H   0  0  0  0  0  0
   -2.8360    0.2394   -1.2937 H   0  0  0  0  0  0
   -2.9585    1.9156    0.5888 H   0  0  0  0  0  0
   -2.3152    0.7248    1.6824 H   0  0  0  0  0  0
   -0.4206    2.0629    1.0042 H   0  0  0  0  0  0
   -0.8770    1.9773   -0.7037 H   0  0  0  0  0  0
   -3.7684   -2.0945    1.4174 H   0  0  0  0  0  0
   -6.1083   -2.6704    1.9115 H   0  0  0  0  0  0
   -7.9524   -1.3974    0.8686 H   0  0  0  0  0  0
   -5.1016    1.0523   -1.1918 H   0  0  0  0  0  0
  1  2  1  0  0  0
  1 27  1  0  0  0
  1 31  1  0  0  0
  2  3  1  0  0  0
  2  8  1  0  0  0
  2 40  1  0  0  0
  3  4  1  0  0  0
  3  7  2  0  0  0
  4  5  1  0  0  0
  4 41  1  0  0  0
  5  6  2  0  0  0
  5 42  1  0  0  0
  6  7  1  0  0  0
  6  9  1  0  0  0
  8 20  1  0  0  0
  8 43  1  0  0  0
  8 44  1  0  0  0
  9 10  2  0  0  0
  9 14  1  0  0  0
 10 11  1  0  0  0
 10 45  1  0  0  0
 11 12  2  0  0  0
 11 46  1  0  0  0
 12 13  1  0  0  0
 12 15  1  0  0  0
 13 14  2  0  0  0
 13 47  1  0  0  0
 14 26  1  0  0  0
 15 16  1  0  0  0
 15 48  1  0  0  0
 16 17  1  0  0  0
 16 19  2  0  0  0
 17 18  1  0  0  0
 18 49  1  0  0  0
 18 50  1  0  0  0
 18 51  1  0  0  0
 20 21  2  0  0  0
 20 52  1  0  0  0
 21 22  1  0  0  0
 21 53  1  0  0  0
 22 23  1  0  0  0
 22 54  1  0  0  0
 22 55  1  0  0  0
 23 24  1  0  0  0
 23 56  1  0  0  0
 23 57  1  0  0  0
 24 25  2  0  0  0
 24 26  1  0  0  0
 26 58  1  0  0  0
 27 28  1  0  0  0
 27 32  2  0  0  0
 28 29  1  0  0  0
 29 30  1  0  0  0
 29 33  1  0  0  0
 29 59  1  0  0  0
 30 31  1  0  0  0
 30 60  1  0  0  0
 30 61  1  0  0  0
 31 62  1  0  0  0
 31 63  1  0  0  0
 33 34  2  0  0  0
 33 38  1  0  0  0
 34 35  1  0  0  0
 34 64  1  0  0  0
 35 36  2  0  0  0
 35 65  1  0  0  0
 36 37  1  0  0  0
 36 66  1  0  0  0
 37 38  2  0  0  0
 37 39  1  0  0  0
 38 67  1  0  0  0
M  END
> <chembl_id>
CHEMBL4515523

> <chembl_pref_name>
None

> <i_m_ct_stereo_status>
1

> <s_m_source_file>
sdf/inactives_sanitized.sdf

> <i_m_source_file_index>
209

> <i_lp_mmshare_version>
49012

> <i_f3d_flags>
0

> <s_epik_input>
W2NIXTFjKENsKVtjSF1bY0hdW2NIXWMxW0NAQEhdKFtDSDJdW0NIMl0yKU9DKD1PKU4yW0NASF0zW0NIMl0vW0NIXT1bQ0hdL1tDSDJdW0NIMl1DKD1PKVtOSF1jKGM0YyhuNSlbY0hdW25IXWMzNSlbY0hdYyhbY0hdW2NIXTQpW05IXUMoPU8pT1tDSDNd

> <s_epik_cmdline>
J2VwaWtfcHl0aG9uJywgJy1waHQnLCAnMC41JywgJy1waCcsICc3LjUnLCAnLW50JywgJy1tYScsICcyMDAnLCAnLWltYWUnLCAnPGluZmlsZS5tYWU+JywgJy1vbWFlJywgJzxvdXRmaWxlLm1hZT4n

> <r_lp_tautomer_probability>
0.499999999999999

> <r_epik_Ionization_Penalty>
  0.1425

> <r_epik_Ionization_Penalty_Charging>
  0.1425

> <r_epik_Ionization_Penalty_Neutral>
  0.0000

> <r_epik_State_Penalty>
  0.4702

> <r_epik_Charging_Adjusted_Penalty>
0.612720790161395

> <i_epik_Tot_Q>
0

> <i_epik_Tot_abs_Q>
0

> <s_epik_Chemistry_Notes>
This compound has an ester and may undergo hydrolysis at high or low pH.

> <s_lp_Force_Field>
OPLS3e

> <r_lp_Energy>
45.936872

> <b_lp_Chiralities_Consistent>
1

> <s_lp_Variant>
 -1

$$$$
 
                    3D
 Schrodinger Suite 2020-1.
 67 71  0  0  1  0            999 V2000
   -0.0640    0.0265   -0.0617 N   0  0  0  0  0  0
    1.4186    0.1047   -0.0462 C   0  0  2  0  0  0
    1.9663    0.0599    1.3771 C   0  0  0  0  0  0
    1.5400    0.7742    2.3948 N   0  0  0  0  0  0
    2.3410    0.4520    3.3985 C   0  0  0  0  0  0
    3.3240   -0.4608    3.0328 C   0  0  0  0  0  0
    3.0415   -0.7155    1.7191 N   0  0  0  0  0  0
    2.0137    1.2962   -0.8403 C   0  0  0  0  0  0
    4.4508   -1.0832    3.7756 C   0  0  0  0  0  0
    4.1389   -2.1044    4.6765 C   0  0  0  0  0  0
    5.1390   -2.7265    5.4224 C   0  0  0  0  0  0
    6.4768   -2.3240    5.2869 C   0  0  0  0  0  0
    6.7898   -1.2929    4.3970 C   0  0  0  0  0  0
    5.7921   -0.6773    3.6354 C   0  0  0  0  0  0
    7.5551   -2.8883    5.9896 N   0  0  0  0  0  0
    7.5601   -3.8998    6.9455 C   0  0  0  0  0  0
    8.8354   -4.1148    7.3263 O   0  0  0  0  0  0
    9.1483   -5.1010    8.3002 C   0  0  0  0  0  0
    6.5889   -4.5142    7.3919 O   0  0  0  0  0  0
    3.5162    1.1908   -1.0368 C   0  0  0  0  0  0
    4.4208    2.0009   -0.4608 C   0  0  0  0  0  0
    5.9270    1.8573   -0.6054 C   0  0  0  0  0  0
    6.6781    1.5852    0.7198 C   0  0  0  0  0  0
    6.2595    0.2960    1.4496 C   0  0  0  0  0  0
    6.0419   -0.7341    0.8075 O   0  0  0  0  0  0
    6.1752    0.3759    2.7929 N   0  0  0  0  0  0
   -0.6119   -1.2736    0.0217 C   0  0  0  0  0  0
   -1.9779   -1.3935    0.0445 O   0  0  0  0  0  0
   -2.8241   -0.2669   -0.2299 C   0  0  2  0  0  0
   -2.2661    1.0306    0.3844 C   0  0  0  0  0  0
   -0.8312    1.2863   -0.1058 C   0  0  0  0  0  0
    0.0271   -2.3229    0.1137 O   0  0  0  0  0  0
   -4.2671   -0.5335    0.1902 C   0  0  0  0  0  0
   -4.5639   -1.2959    1.3277 C   0  0  0  0  0  0
   -5.8898   -1.5234    1.6973 C   0  0  0  0  0  0
   -6.9289   -0.9897    0.9351 C   0  0  0  0  0  0
   -6.6422   -0.2265   -0.1973 C   0  0  0  0  0  0
   -5.3156    0.0016   -0.5667 C   0  0  0  0  0  0
   -7.9270    0.4355   -1.1411 Cl  0  0  0  0  0  0
    1.7889   -0.7782   -0.5725 H   0  0  0  0  0  0
    2.2242    0.8939    4.3770 H   0  0  0  0  0  0
    1.5606    1.3476   -1.8311 H   0  0  0  0  0  0
    1.7787    2.2399   -0.3447 H   0  0  0  0  0  0
    3.1144   -2.4254    4.8005 H   0  0  0  0  0  0
    4.8425   -3.5144    6.0955 H   0  0  0  0  0  0
    7.8161   -0.9679    4.2913 H   0  0  0  0  0  0
    8.4582   -2.4991    5.7624 H   0  0  0  0  0  0
   10.2250   -5.1271    8.4675 H   0  0  0  0  0  0
    8.8317   -6.0917    7.9706 H   0  0  0  0  0  0
    8.6616   -4.8798    9.2513 H   0  0  0  0  0  0
    3.8542    0.3785   -1.6646 H   0  0  0  0  0  0
    4.0825    2.8044    0.1777 H   0  0  0  0  0  0
    6.1528    1.0685   -1.3256 H   0  0  0  0  0  0
    6.3046    2.7801   -1.0472 H   0  0  0  0  0  0
    7.7474    1.5162    0.5168 H   0  0  0  0  0  0
    6.5532    2.4439    1.3823 H   0  0  0  0  0  0
    6.4369    1.2408    3.2426 H   0  0  0  0  0  0
   -2.8471   -0.1641   -1.3163 H   0  0  0  0  0  0
   -2.9010    1.8868    0.1540 H   0  0  0  0  0  0
   -2.2620    0.9493    1.4729 H   0  0  0  0  0  0
   -0.3503    2.0471    0.5099 H   0  0  0  0  0  0
   -0.8412    1.6324   -1.1399 H   0  0  0  0  0  0
   -3.7696   -1.7110    1.9312 H   0  0  0  0  0  0
   -6.1114   -2.1119    2.5755 H   0  0  0  0  0  0
   -7.9542   -1.1681    1.2246 H   0  0  0  0  0  0
   -5.1013    0.5951   -1.4441 H   0  0  0  0  0  0
    3.5560   -1.3312    1.1055 H   0  0  0  0  0  0
  1  2  1  0  0  0
  1 27  1  0  0  0
  1 31  1  0  0  0
  2  3  1  0  0  0
  2  8  1  0  0  0
  2 40  1  0  0  0
  3  4  2  0  0  0
  3  7  1  0  0  0
  4  5  1  0  0  0
  5  6  2  0  0  0
  5 41  1  0  0  0
  6  7  1  0  0  0
  6  9  1  0  0  0
  7 67  1  0  0  0
  8 20  1  0  0  0
  8 42  1  0  0  0
  8 43  1  0  0  0
  9 10  2  0  0  0
  9 14  1  0  0  0
 10 11  1  0  0  0
 10 44  1  0  0  0
 11 12  2  0  0  0
 11 45  1  0  0  0
 12 13  1  0  0  0
 12 15  1  0  0  0
 13 14  2  0  0  0
 13 46  1  0  0  0
 14 26  1  0  0  0
 15 16  1  0  0  0
 15 47  1  0  0  0
 16 17  1  0  0  0
 16 19  2  0  0  0
 17 18  1  0  0  0
 18 48  1  0  0  0
 18 49  1  0  0  0
 18 50  1  0  0  0
 20 21  2  0  0  0
 20 51  1  0  0  0
 21 22  1  0  0  0
 21 52  1  0  0  0
 22 23  1  0  0  0
 22 53  1  0  0  0
 22 54  1  0  0  0
 23 24  1  0  0  0
 23 55  1  0  0  0
 23 56  1  0  0  0
 24 25  2  0  0  0
 24 26  1  0  0  0
 26 57  1  0  0  0
 27 28  1  0  0  0
 27 32  2  0  0  0
 28 29  1  0  0  0
 29 30  1  0  0  0
 29 33  1  0  0  0
 29 58  1  0  0  0
 30 31  1  0  0  0
 30 59  1  0  0  0
 30 60  1  0  0  0
 31 61  1  0  0  0
 31 62  1  0  0  0
 33 34  2  0  0  0
 33 38  1  0  0  0
 34 35  1  0  0  0
 34 63  1  0  0  0
 35 36  2  0  0  0
 35 64  1  0  0  0
 36 37  1  0  0  0
 36 65  1  0  0  0
 37 38  2  0  0  0
 37 39  1  0  0  0
 38 66  1  0  0  0
M  END
> <chembl_id>
CHEMBL4515523

> <chembl_pref_name>
None

> <i_m_ct_stereo_status>
1

> <s_m_source_file>
sdf/inactives_sanitized.sdf

> <i_m_source_file_index>
209

> <i_lp_mmshare_version>
49012

> <i_f3d_flags>
0

> <s_epik_input>
W2NIXTFjKENsKVtjSF1bY0hdW2NIXWMxW0NAQEhdKFtDSDJdW0NIMl0yKU9DKD1PKU4yW0NASF0zW0NIMl0vW0NIXT1bQ0hdL1tDSDJdW0NIMl1DKD1PKVtOSF1jKGM0YyhuNSlbY0hdW25IXWMzNSlbY0hdYyhbY0hdW2NIXTQpW05IXUMoPU8pT1tDSDNd

> <s_epik_cmdline>
J2VwaWtfcHl0aG9uJywgJy1waHQnLCAnMC41JywgJy1waCcsICc3LjUnLCAnLW50JywgJy1tYScsICcyMDAnLCAnLWltYWUnLCAnPGluZmlsZS5tYWU+JywgJy1vbWFlJywgJzxvdXRmaWxlLm1hZT4n

> <r_lp_tautomer_probability>
0.499999999999999

> <r_epik_Ionization_Penalty>
  0.1622

> <r_epik_Ionization_Penalty_Charging>
  0.1622

> <r_epik_Ionization_Penalty_Neutral>
  0.0000

> <r_epik_State_Penalty>
  0.5013

> <r_epik_Charging_Adjusted_Penalty>
0.663496474695761

> <i_epik_Tot_Q>
0

> <i_epik_Tot_abs_Q>
0

> <s_epik_Chemistry_Notes>
This compound has an ester and may undergo hydrolysis at high or low pH.

> <s_lp_Force_Field>
OPLS3e

> <r_lp_Energy>
43.983397

> <b_lp_Chiralities_Consistent>
1

> <s_lp_Variant>
 -2

$$$$
sdf/inactives_sanitized.sdf:210
                    3D
 Schrodinger Suite 2020-1.
 70 74  0  0  1  0            999 V2000
   -2.0257   -1.0851   -0.1697 C   0  0  0  0  0  0
   -0.6077   -1.0054   -0.1284 O   0  0  0  0  0  0
    0.0234    0.1958   -0.0826 C   0  0  0  0  0  0
   -0.5716    1.2776   -0.0717 O   0  0  0  0  0  0
    1.5195    0.0778   -0.0499 C   0  0  0  0  0  0
    2.1711   -1.1647   -0.0555 C   0  0  0  0  0  0
    3.5615   -1.2385   -0.0348 C   0  0  0  0  0  0
    4.3322   -0.0747   -0.0151 C   0  0  0  0  0  0
    5.7262   -0.2389    0.0161 N   0  0  0  0  0  0
    6.6120    0.0036   -0.9772 C   0  0  0  0  0  0
    7.8011   -0.2576   -0.7979 O   0  0  0  0  0  0
    6.1815    0.6021   -2.3435 C   0  0  2  0  0  0
    6.3274   -0.4383   -3.4726 C   0  0  0  0  0  0
    6.9719    1.9081   -2.6514 C   0  0  0  0  0  0
    6.3325    2.8234   -3.7296 C   0  0  0  0  0  0
    6.5336    4.3451   -3.4929 C   0  0  0  0  0  0
    5.4799    5.0445   -2.5728 C   0  0  2  0  0  0
    5.6459    6.5171   -2.4769 N   0  0  0  0  0  0
    7.0183    7.1083   -2.4563 C   0  0  0  0  0  0
    7.0860    8.4840   -1.7382 C   0  0  0  0  0  0
    5.9216    9.3389   -2.1971 C   0  0  0  0  0  0
    4.7470    8.7338   -2.4544 C   0  0  0  0  0  0
    4.5232    7.3055   -2.3944 C   0  0  0  0  0  0
    3.3787    6.8662   -2.2678 O   0  0  0  0  0  0
    6.0016   10.8099   -2.1153 C   0  0  0  0  0  0
    6.2969   11.4243   -0.8923 C   0  0  0  0  0  0
    6.3990   12.8120   -0.8014 C   0  0  0  0  0  0
    6.2142   13.6000   -1.9357 C   0  0  0  0  0  0
    5.9298   13.0015   -3.1632 C   0  0  0  0  0  0
    5.7118   13.9928   -4.5616 Cl  0  0  0  0  0  0
    5.8266   11.6094   -3.2556 C   0  0  0  0  0  0
    5.5604   11.0356   -4.4542 F   0  0  0  0  0  0
    5.3434    4.3513   -1.2127 C   0  0  0  0  0  0
    6.1064    4.7257   -0.0993 C   0  0  0  0  0  0
    6.0497    3.9728    1.0737 C   0  0  0  0  0  0
    5.2525    2.8293    1.1327 C   0  0  0  0  0  0
    4.4681    2.4581    0.0360 C   0  0  0  0  0  0
    4.4709    3.2665   -1.1021 C   0  0  0  0  0  0
    3.7014    1.1873    0.0197 C   0  0  0  0  0  0
    2.3028    1.2405   -0.0123 C   0  0  0  0  0  0
   -2.3368   -2.1295   -0.1907 H   0  0  0  0  0  0
   -2.4192   -0.5949   -1.0613 H   0  0  0  0  0  0
   -2.4702   -0.6158    0.7091 H   0  0  0  0  0  0
    1.6146   -2.0907   -0.0786 H   0  0  0  0  0  0
    4.0363   -2.2095   -0.0438 H   0  0  0  0  0  0
    6.0871   -0.6946    0.8414 H   0  0  0  0  0  0
    5.1246    0.8543   -2.2969 H   0  0  0  0  0  0
    5.7458   -1.3373   -3.2629 H   0  0  0  0  0  0
    7.3656   -0.7441   -3.6115 H   0  0  0  0  0  0
    5.9708   -0.0401   -4.4230 H   0  0  0  0  0  0
    7.0962    2.4763   -1.7301 H   0  0  0  0  0  0
    7.9949    1.6659   -2.9452 H   0  0  0  0  0  0
    6.7624    2.5542   -4.6954 H   0  0  0  0  0  0
    5.2665    2.6189   -3.8344 H   0  0  0  0  0  0
    7.5473    4.5102   -3.1275 H   0  0  0  0  0  0
    6.4930    4.8355   -4.4667 H   0  0  0  0  0  0
    4.5308    4.8746   -3.0862 H   0  0  0  0  0  0
    7.7723    6.4012   -2.1124 H   0  0  0  0  0  0
    7.2646    7.2966   -3.5023 H   0  0  0  0  0  0
    6.9994    8.3127   -0.6642 H   0  0  0  0  0  0
    8.0437    8.9734   -1.9179 H   0  0  0  0  0  0
    3.8880    9.3458   -2.6924 H   0  0  0  0  0  0
    6.4456   10.8265   -0.0044 H   0  0  0  0  0  0
    6.6233   13.2765    0.1477 H   0  0  0  0  0  0
    6.2957   14.6747   -1.8611 H   0  0  0  0  0  0
    6.7750    5.5717   -0.1468 H   0  0  0  0  0  0
    6.6556    4.2521    1.9231 H   0  0  0  0  0  0
    5.2592    2.2206    2.0255 H   0  0  0  0  0  0
    3.8746    2.9748   -1.9551 H   0  0  0  0  0  0
    1.8272    2.2122   -0.0049 H   0  0  0  0  0  0
  1  2  1  0  0  0
  1 41  1  0  0  0
  1 42  1  0  0  0
  1 43  1  0  0  0
  2  3  1  0  0  0
  3  4  2  0  0  0
  3  5  1  0  0  0
  5  6  2  0  0  0
  5 40  1  0  0  0
  6  7  1  0  0  0
  6 44  1  0  0  0
  7  8  2  0  0  0
  7 45  1  0  0  0
  8  9  1  0  0  0
  8 39  1  0  0  0
  9 10  1  0  0  0
  9 46  1  0  0  0
 10 11  2  0  0  0
 10 12  1  0  0  0
 12 13  1  0  0  0
 12 14  1  0  0  0
 12 47  1  0  0  0
 13 48  1  0  0  0
 13 49  1  0  0  0
 13 50  1  0  0  0
 14 15  1  0  0  0
 14 51  1  0  0  0
 14 52  1  0  0  0
 15 16  1  0  0  0
 15 53  1  0  0  0
 15 54  1  0  0  0
 16 17  1  0  0  0
 16 55  1  0  0  0
 16 56  1  0  0  0
 17 18  1  0  0  0
 17 33  1  0  0  0
 17 57  1  0  0  0
 18 19  1  0  0  0
 18 23  1  0  0  0
 19 20  1  0  0  0
 19 58  1  0  0  0
 19 59  1  0  0  0
 20 21  1  0  0  0
 20 60  1  0  0  0
 20 61  1  0  0  0
 21 22  2  0  0  0
 21 25  1  0  0  0
 22 23  1  0  0  0
 22 62  1  0  0  0
 23 24  2  0  0  0
 25 26  2  0  0  0
 25 31  1  0  0  0
 26 27  1  0  0  0
 26 63  1  0  0  0
 27 28  2  0  0  0
 27 64  1  0  0  0
 28 29  1  0  0  0
 28 65  1  0  0  0
 29 30  1  0  0  0
 29 31  2  0  0  0
 31 32  1  0  0  0
 33 34  1  0  0  0
 33 38  2  0  0  0
 34 35  2  0  0  0
 34 66  1  0  0  0
 35 36  1  0  0  0
 35 67  1  0  0  0
 36 37  2  0  0  0
 36 68  1  0  0  0
 37 38  1  0  0  0
 37 39  1  0  0  0
 38 69  1  0  0  0
 39 40  2  0  0  0
 40 70  1  0  0  0
M  END
> <chembl_id>
CHEMBL4109359

> <chembl_pref_name>
None

> <i_m_ct_stereo_status>
1

> <s_m_source_file>
sdf/inactives_sanitized.sdf

> <i_m_source_file_index>
210

> <i_lp_mmshare_version>
49012

> <i_f3d_flags>
0

> <s_epik_input>
W0NIM11PQyg9TyljKFtjSF1bY0hdMSlbY0hdYyhjMTIpYzNbY0hdW2NIXVtjSF1jKFtjSF0zKVtDQEhdKFtDSDJdW0NIMl1bQ0gyXVtDQEBIXShbQ0gzXSlDKD1PKVtOSF0yKU40W0NIMl1bQ0gyXUMoPVtDSF1DND1PKWM1W2NIXVtjSF1bY0hdYyhDbCljNUY=

> <s_epik_cmdline>
J2VwaWtfcHl0aG9uJywgJy1waHQnLCAnMC41JywgJy1waCcsICc3LjUnLCAnLW50JywgJy1tYScsICcyMDAnLCAnLWltYWUnLCAnPGluZmlsZS5tYWU+JywgJy1vbWFlJywgJzxvdXRmaWxlLm1hZT4n

> <r_lp_tautomer_probability>
1

> <r_epik_Ionization_Penalty>
  0.0000

> <r_epik_Ionization_Penalty_Charging>
  0.0000

> <r_epik_Ionization_Penalty_Neutral>
  0.0000

> <r_epik_State_Penalty>
 -0.0000

> <r_epik_Charging_Adjusted_Penalty>
0

> <i_epik_Tot_Q>
0

> <i_epik_Tot_abs_Q>
0

> <s_epik_Chemistry_Notes>
This compound has an ester and may undergo hydrolysis at high or low pH.

> <s_lp_Force_Field>
OPLS3e

> <r_lp_Energy>
87.945348

> <b_lp_Chiralities_Consistent>
1

> <s_lp_Variant>
sdf/inactives_sanitized.sdf:210-1

$$$$
sdf/inactives_sanitized.sdf:211
                    3D
 Schrodinger Suite 2020-1.
 65 69  0  0  1  0            999 V2000
   -5.2376    1.7915   -0.9596 C   0  0  0  0  0  0
   -4.1170    0.9757   -1.6358 C   0  0  2  0  0  0
   -2.7300    1.6723   -1.5029 C   0  0  0  0  0  0
   -2.0909    1.6029   -0.0901 C   0  0  0  0  0  0
   -0.5413    1.4953   -0.0831 C   0  0  0  0  0  0
    0.0445    0.0494   -0.1857 C   0  0  2  0  0  0
    1.5253    0.0051   -0.0873 N   0  0  0  0  0  0
    2.3408    1.0383   -0.7938 C   0  0  0  0  0  0
    3.7667    0.5456   -1.1615 C   0  0  0  0  0  0
    4.3696   -0.1655    0.0368 C   0  0  0  0  0  0
    3.5463   -0.9101    0.8013 C   0  0  0  0  0  0
    2.1135   -1.0107    0.6259 C   0  0  0  0  0  0
    1.5003   -1.9693    1.0993 O   0  0  0  0  0  0
    5.8399   -0.2903    0.1893 C   0  0  0  0  0  0
    6.6529   -0.6636   -0.8948 C   0  0  0  0  0  0
    6.1145   -0.9403   -2.1057 F   0  0  0  0  0  0
    8.0345   -0.7751   -0.7396 C   0  0  0  0  0  0
    8.6252   -0.5167    0.4944 C   0  0  0  0  0  0
    7.8350   -0.1434    1.5795 C   0  0  0  0  0  0
    8.5827    0.1775    3.1039 Cl  0  0  0  0  0  0
    6.4495   -0.0291    1.4294 C   0  0  0  0  0  0
    5.6982    0.3506    2.4919 F   0  0  0  0  0  0
   -0.5101   -0.7184   -1.3898 C   0  0  0  0  0  0
   -1.7155   -1.4118   -1.2616 C   0  0  0  0  0  0
   -2.3574   -1.8826   -2.4098 C   0  0  0  0  0  0
   -1.7006   -1.7617   -3.6405 C   0  0  0  0  0  0
   -0.4490   -1.1431   -3.6782 C   0  0  0  0  0  0
    0.1417   -0.6064   -2.5802 N   0  0  0  0  0  0
   -3.7414   -2.4089   -2.3059 C   0  0  0  0  0  0
   -3.9634   -3.5959   -1.6016 C   0  0  0  0  0  0
   -5.2470   -4.1188   -1.4594 C   0  0  0  0  0  0
   -6.3564   -3.4668   -2.0169 C   0  0  0  0  0  0
   -6.1372   -2.2699   -2.7161 C   0  0  0  0  0  0
   -4.8536   -1.7312   -2.8499 C   0  0  0  0  0  0
   -4.7442   -0.5393   -3.5851 N   0  0  0  0  0  0
   -4.4548    0.7000   -3.1257 C   0  0  0  0  0  0
   -4.4586    1.6469   -3.9119 O   0  0  0  0  0  0
   -7.7396   -4.0327   -1.8684 C   0  0  0  0  0  0
   -8.6910   -3.4037   -2.3862 O   0  0  0  0  0  0
   -7.8720   -5.1048   -1.2344 O   0  5  0  0  0  0
   -6.2006    1.2844   -1.0370 H   0  0  0  0  0  0
   -5.3497    2.7786   -1.4109 H   0  0  0  0  0  0
   -5.0348    1.9350    0.1021 H   0  0  0  0  0  0
   -4.0690    0.0271   -1.1056 H   0  0  0  0  0  0
   -2.0415    1.2372   -2.2265 H   0  0  0  0  0  0
   -2.8046    2.7163   -1.8124 H   0  0  0  0  0  0
   -2.3877    2.4984    0.4577 H   0  0  0  0  0  0
   -2.5059    0.7748    0.4855 H   0  0  0  0  0  0
   -0.1401    2.1410   -0.8643 H   0  0  0  0  0  0
   -0.1865    1.9242    0.8553 H   0  0  0  0  0  0
   -0.3489   -0.4628    0.6949 H   0  0  0  0  0  0
    1.8049    1.4850   -1.6312 H   0  0  0  0  0  0
    2.4670    1.8486   -0.0743 H   0  0  0  0  0  0
    3.6707   -0.1587   -1.9891 H   0  0  0  0  0  0
    4.3913    1.3736   -1.4983 H   0  0  0  0  0  0
    3.9724   -1.5136    1.5907 H   0  0  0  0  0  0
    8.6498   -1.0678   -1.5778 H   0  0  0  0  0  0
    9.6960   -0.6070    0.6062 H   0  0  0  0  0  0
   -2.2114   -1.4694   -0.3032 H   0  0  0  0  0  0
   -2.1599   -2.1212   -4.5497 H   0  0  0  0  0  0
    0.0827   -1.0335   -4.6119 H   0  0  0  0  0  0
   -3.1312   -4.1253   -1.1598 H   0  0  0  0  0  0
   -5.3652   -5.0413   -0.9089 H   0  0  0  0  0  0
   -6.9720   -1.7418   -3.1574 H   0  0  0  0  0  0
   -5.0299   -0.6057   -4.5509 H   0  0  0  0  0  0
  1  2  1  0  0  0
  1 41  1  0  0  0
  1 42  1  0  0  0
  1 43  1  0  0  0
  2  3  1  0  0  0
  2 36  1  0  0  0
  2 44  1  0  0  0
  3  4  1  0  0  0
  3 45  1  0  0  0
  3 46  1  0  0  0
  4  5  1  0  0  0
  4 47  1  0  0  0
  4 48  1  0  0  0
  5  6  1  0  0  0
  5 49  1  0  0  0
  5 50  1  0  0  0
  6  7  1  0  0  0
  6 23  1  0  0  0
  6 51  1  0  0  0
  7  8  1  0  0  0
  7 12  1  0  0  0
  8  9  1  0  0  0
  8 52  1  0  0  0
  8 53  1  0  0  0
  9 10  1  0  0  0
  9 54  1  0  0  0
  9 55  1  0  0  0
 10 11  2  0  0  0
 10 14  1  0  0  0
 11 12  1  0  0  0
 11 56  1  0  0  0
 12 13  2  0  0  0
 14 15  2  0  0  0
 14 21  1  0  0  0
 15 16  1  0  0  0
 15 17  1  0  0  0
 17 18  2  0  0  0
 17 57  1  0  0  0
 18 19  1  0  0  0
 18 58  1  0  0  0
 19 20  1  0  0  0
 19 21  2  0  0  0
 21 22  1  0  0  0
 23 24  1  0  0  0
 23 28  2  0  0  0
 24 25  2  0  0  0
 24 59  1  0  0  0
 25 26  1  0  0  0
 25 29  1  0  0  0
 26 27  2  0  0  0
 26 60  1  0  0  0
 27 28  1  0  0  0
 27 61  1  0  0  0
 29 30  2  0  0  0
 29 34  1  0  0  0
 30 31  1  0  0  0
 30 62  1  0  0  0
 31 32  2  0  0  0
 31 63  1  0  0  0
 32 33  1  0  0  0
 32 38  1  0  0  0
 33 34  2  0  0  0
 33 64  1  0  0  0
 34 35  1  0  0  0
 35 36  1  0  0  0
 35 65  1  0  0  0
 36 37  2  0  0  0
 38 39  2  0  0  0
 38 40  1  0  0  0
M  CHG  1  40  -1
M  END
> <chembl_id>
CHEMBL3938635

> <chembl_pref_name>
None

> <i_m_ct_stereo_status>
1

> <s_m_source_file>
sdf/inactives_sanitized.sdf

> <i_m_source_file_index>
211

> <i_lp_mmshare_version>
49012

> <i_f3d_flags>
0

> <s_epik_input>
bjFbY0hdW2NIXWMoW2NIXWMxMiljM2MoW2NIXWMoW2NIXVtjSF0zKUMoPU8pW09IXSlbTkhdQyg9TylbQ0BIXShbQ0gzXSlbQ0gyXVtDSDJdW0NIMl1bQ0BASF0yTjRbQ0gyXVtDSDJdQyg9W0NIXUM0PU8pYzVjKEYpW2NIXVtjSF1jKENsKWM1Rg==

> <s_epik_cmdline>
J2VwaWtfcHl0aG9uJywgJy1waHQnLCAnMC41JywgJy1waCcsICc3LjUnLCAnLW50JywgJy1tYScsICcyMDAnLCAnLWltYWUnLCAnPGluZmlsZS5tYWU+JywgJy1vbWFlJywgJzxvdXRmaWxlLm1hZT4n

> <r_lp_tautomer_probability>
1

> <r_epik_Ionization_Penalty>
  0.0002

> <r_epik_Ionization_Penalty_Charging>
  0.0002

> <r_epik_Ionization_Penalty_Neutral>
  0.0001

> <r_epik_State_Penalty>
 -0.0000

> <r_epik_Charging_Adjusted_Penalty>
0.000153439422440762

> <i_epik_Tot_Q>
-1

> <i_epik_Tot_abs_Q>
1

> <s_lp_Force_Field>
OPLS3e

> <r_lp_Energy>
99.799468

> <b_lp_Chiralities_Consistent>
1

> <s_lp_Variant>
sdf/inactives_sanitized.sdf:211-1

$$$$
sdf/inactives_sanitized.sdf:212
                    3D
 Schrodinger Suite 2020-1.
 57 60  0  0  1  0            999 V2000
   -6.9930    2.1760    0.0430 C   0  0  0  0  0  0
   -7.4821    0.8732    0.0775 C   0  0  0  0  0  0
   -6.5973   -0.1983    0.1494 C   0  0  0  0  0  0
   -5.2235    0.0346    0.1943 C   0  0  0  0  0  0
   -4.7046    1.3395    0.1685 C   0  0  0  0  0  0
   -5.6138    2.4197    0.0749 C   0  0  0  0  0  0
   -7.2012   -1.8146    0.1921 Cl  0  0  0  0  0  0
   -5.1946    3.7663    0.0021 N   0  0  0  0  0  0
   -5.6271    4.8451    0.7377 C   0  0  0  0  0  0
   -5.0348    5.9450    0.3476 N   0  0  0  0  0  0
   -4.1998    5.5551   -0.6951 N   0  0  0  0  0  0
   -4.3140    4.1950   -0.9146 N   0  0  0  0  0  0
   -3.2373    1.5539    0.2575 C   0  0  0  0  0  0
   -2.2763    0.6505   -0.0363 C   0  0  0  0  0  0
   -0.8673    0.9389    0.1066 C   0  0  0  0  0  0
   -0.0862   -0.1170   -0.1817 N   0  0  0  0  0  0
   -0.4288    2.0309    0.4761 O   0  0  0  0  0  0
    1.3796   -0.1509   -0.0983 C   0  0  2  0  0  0
    1.9781   -0.8647   -1.3281 C   0  0  0  0  0  0
    1.8218   -0.8517    1.2139 C   0  0  0  0  0  0
    1.4400   -0.1327    2.4983 C   0  0  0  0  0  0
    3.1168   -0.3198   -1.8092 N   0  0  0  0  0  0
    1.4230   -1.8733   -1.7721 O   0  0  0  0  0  0
    2.1994    0.9702    2.9432 C   0  0  0  0  0  0
    1.7928    1.6894    4.0592 C   0  0  0  0  0  0
    0.6237    1.3449    4.7261 C   0  0  0  0  0  0
   -0.1544    0.2850    4.2776 C   0  0  0  0  0  0
    0.2360   -0.4479    3.1645 C   0  0  0  0  0  0
    3.9007   -0.7655   -2.8866 C   0  0  0  0  0  0
    4.6326    0.2033   -3.5726 C   0  0  0  0  0  0
    5.4526   -0.1616   -4.6365 C   0  0  0  0  0  0
    5.5638   -1.5044   -5.0284 C   0  0  0  0  0  0
    4.8333   -2.4733   -4.3234 C   0  0  0  0  0  0
    4.0122   -2.1118   -3.2585 C   0  0  0  0  0  0
    6.4517   -1.8971   -6.1746 C   0  0  0  0  0  0
    7.0858   -0.9922   -6.7650 O   0  5  0  0  0  0
    6.5145   -3.1097   -6.4826 O   0  0  0  0  0  0
   -7.6947    2.9952   -0.0253 H   0  0  0  0  0  0
   -8.5476    0.6977    0.0443 H   0  0  0  0  0  0
   -4.5655   -0.8181    0.2715 H   0  0  0  0  0  0
   -6.3592    4.7292    1.5234 H   0  0  0  0  0  0
   -2.9338    2.5273    0.6181 H   0  0  0  0  0  0
   -2.5324   -0.3368   -0.3946 H   0  0  0  0  0  0
   -0.5156   -0.9625   -0.5281 H   0  0  0  0  0  0
    1.7741    0.8681   -0.0753 H   0  0  0  0  0  0
    1.4139   -1.8637    1.2567 H   0  0  0  0  0  0
    2.9070   -0.9718    1.2213 H   0  0  0  0  0  0
    3.4287    0.5402   -1.3824 H   0  0  0  0  0  0
    3.0972    1.2592    2.4166 H   0  0  0  0  0  0
    2.3824    2.5259    4.4042 H   0  0  0  0  0  0
    0.3117    1.9127    5.5902 H   0  0  0  0  0  0
   -1.0711    0.0356    4.7915 H   0  0  0  0  0  0
   -0.3867   -1.2560    2.8094 H   0  0  0  0  0  0
    4.5687    1.2445   -3.2894 H   0  0  0  0  0  0
    6.0023    0.6145   -5.1500 H   0  0  0  0  0  0
    4.8980   -3.5191   -4.5888 H   0  0  0  0  0  0
    3.4844   -2.8895   -2.7276 H   0  0  0  0  0  0
  1  2  2  0  0  0
  1  6  1  0  0  0
  1 38  1  0  0  0
  2  3  1  0  0  0
  2 39  1  0  0  0
  3  4  2  0  0  0
  3  7  1  0  0  0
  4  5  1  0  0  0
  4 40  1  0  0  0
  5  6  2  0  0  0
  5 13  1  0  0  0
  6  8  1  0  0  0
  8  9  1  0  0  0
  8 12  1  0  0  0
  9 10  2  0  0  0
  9 41  1  0  0  0
 10 11  1  0  0  0
 11 12  2  0  0  0
 13 14  2  0  0  0
 13 42  1  0  0  0
 14 15  1  0  0  0
 14 43  1  0  0  0
 15 16  1  0  0  0
 15 17  2  0  0  0
 16 18  1  0  0  0
 16 44  1  0  0  0
 18 19  1  0  0  0
 18 20  1  0  0  0
 18 45  1  0  0  0
 19 22  1  0  0  0
 19 23  2  0  0  0
 20 21  1  0  0  0
 20 46  1  0  0  0
 20 47  1  0  0  0
 21 24  2  0  0  0
 21 28  1  0  0  0
 22 29  1  0  0  0
 22 48  1  0  0  0
 24 25  1  0  0  0
 24 49  1  0  0  0
 25 26  2  0  0  0
 25 50  1  0  0  0
 26 27  1  0  0  0
 26 51  1  0  0  0
 27 28  2  0  0  0
 27 52  1  0  0  0
 28 53  1  0  0  0
 29 30  2  0  0  0
 29 34  1  0  0  0
 30 31  1  0  0  0
 30 54  1  0  0  0
 31 32  2  0  0  0
 31 55  1  0  0  0
 32 33  1  0  0  0
 32 35  1  0  0  0
 33 34  2  0  0  0
 33 56  1  0  0  0
 34 57  1  0  0  0
 35 36  1  0  0  0
 35 37  2  0  0  0
M  CHG  1  36  -1
M  END
> <chembl_id>
CHEMBL3754069

> <chembl_pref_name>
None

> <i_m_ct_stereo_status>
1

> <s_m_source_file>
sdf/inactives_sanitized.sdf

> <i_m_source_file_index>
212

> <i_lp_mmshare_version>
49012

> <i_f3d_flags>
0

> <s_epik_input>
bjFubltjSF1uMS1jKFtjSF1bY0hdYzJDbCljKFtjSF0yKS9bQ0hdPVtDSF0vQyg9TylbTkhdW0NAQEhdKFtDSDJdYzNbY0hdW2NIXVtjSF1bY0hdW2NIXTMpQyg9TylbTkhdYzRbY0hdW2NIXWMoW2NIXVtjSF00KUMoPU8pW09IXQ==

> <s_epik_cmdline>
J2VwaWtfcHl0aG9uJywgJy1waHQnLCAnMC41JywgJy1waCcsICc3LjUnLCAnLW50JywgJy1tYScsICcyMDAnLCAnLWltYWUnLCAnPGluZmlsZS5tYWU+JywgJy1vbWFlJywgJzxvdXRmaWxlLm1hZT4n

> <r_lp_tautomer_probability>
1

> <r_epik_Ionization_Penalty>
  0.0003

> <r_epik_Ionization_Penalty_Charging>
  0.0003

> <r_epik_Ionization_Penalty_Neutral>
  0.0000

> <r_epik_State_Penalty>
 -0.0000

> <r_epik_Charging_Adjusted_Penalty>
0.000318788774005192

> <i_epik_Tot_Q>
-1

> <i_epik_Tot_abs_Q>
1

> <s_lp_Force_Field>
OPLS3e

> <r_lp_Energy>
53.21309

> <b_lp_Chiralities_Consistent>
1

> <s_lp_Variant>
sdf/inactives_sanitized.sdf:212-1

$$$$
sdf/inactives_sanitized.sdf:213
                    3D
 Schrodinger Suite 2020-1.
 75 79  0  0  1  0            999 V2000
   -0.0554    2.3755    0.1241 C   0  0  0  0  0  0
   -0.5906    1.1203   -0.1762 C   0  0  0  0  0  0
   -1.9721    0.9433   -0.1967 C   0  0  0  0  0  0
   -2.8359    2.0018    0.0703 C   0  0  0  0  0  0
    0.2284    0.0204   -0.4687 N   0  0  0  0  0  0
    1.6639    0.0004   -0.6798 C   0  0  1  0  0  0
    2.1211   -1.4738   -0.7799 C   0  0  0  0  0  0
    3.3799   -1.7168   -0.3727 N   0  0  0  0  0  0
    1.3986   -2.3294   -1.3001 O   0  0  0  0  0  0
    2.1181    0.7510   -1.9146 C   0  0  0  0  0  0
    1.4583    0.6098   -3.1427 C   0  0  0  0  0  0
    1.9356    1.2351   -4.2990 C   0  0  0  0  0  0
    3.0932    2.0347   -4.2270 C   0  0  0  0  0  0
    3.7226    2.2119   -2.9902 C   0  0  0  0  0  0
    3.2497    1.5678   -1.8503 C   0  0  0  0  0  0
    4.1106   -2.9500   -0.6790 C   0  0  0  0  0  0
    4.4244   -3.1669   -2.1714 C   0  0  0  0  0  0
    4.3338   -4.4279   -2.8020 C   0  0  0  0  0  0
    4.5196   -4.5166   -4.1873 C   0  0  0  0  0  0
    4.8073   -3.3867   -4.9473 C   0  0  0  0  0  0
    4.9374   -2.1417   -4.3364 C   0  0  0  0  0  0
    4.7387   -2.0426   -2.9523 C   0  0  0  0  0  0
    5.2060   -1.0447   -5.1761 N   0  0  0  0  0  0
    5.7372    0.1532   -4.8479 C   0  0  0  0  0  0
    5.8065    1.1926   -5.9755 C   0  0  0  0  0  0
    6.1909    0.4417   -3.7400 O   0  0  0  0  0  0
    3.7059    2.7063   -5.4580 C   0  0  0  0  0  0
    4.4368    1.7525   -6.4371 C   0  0  0  0  0  0
    3.9787   -5.9622   -1.9161 S   0  0  0  0  0  0
    2.1051   -5.8998   -1.6438 C   0  0  0  0  0  0
    4.2625   -7.0787   -2.8256 O   0  0  0  0  0  0
    4.6581   -5.9045   -0.6168 O   0  0  0  0  0  0
    1.6360   -7.1700   -0.9247 C   0  0  0  0  0  0
   -0.9032    3.4745    0.4010 C   0  0  0  0  0  0
   -2.3231    3.2919    0.3733 C   0  0  0  0  0  0
   -3.1470    4.4241    0.6524 C   0  0  0  0  0  0
   -2.5790    5.6105    0.9319 N   0  3  0  0  0  0
   -1.2516    5.8147    0.9680 C   0  0  0  0  0  0
   -0.3801    4.7596    0.7051 C   0  0  0  0  0  0
   -4.5585    4.3572    0.6471 N   0  0  0  0  0  0
    1.1696    1.0229   -5.5988 C   0  0  0  0  0  0
    1.0137    2.5302    0.1441 H   0  0  0  0  0  0
   -2.3899   -0.0267   -0.4275 H   0  0  0  0  0  0
   -3.9033    1.8374    0.0435 H   0  0  0  0  0  0
   -0.2498   -0.8389   -0.7004 H   0  0  0  0  0  0
    2.1094    0.4497    0.2106 H   0  0  0  0  0  0
    3.9196   -0.9585    0.0191 H   0  0  0  0  0  0
    0.5831   -0.0214   -3.2034 H   0  0  0  0  0  0
    4.6105    2.8228   -2.9145 H   0  0  0  0  0  0
    3.7802    1.6930   -0.9176 H   0  0  0  0  0  0
    5.0610   -2.9129   -0.1460 H   0  0  0  0  0  0
    3.5517   -3.7728   -0.2407 H   0  0  0  0  0  0
    4.4390   -5.4662   -4.6950 H   0  0  0  0  0  0
    4.9382   -3.4907   -6.0150 H   0  0  0  0  0  0
    4.7868   -1.0784   -2.4706 H   0  0  0  0  0  0
    5.0325   -1.2088   -6.1567 H   0  0  0  0  0  0
    6.4646    2.0134   -5.6851 H   0  0  0  0  0  0
    6.2973    0.7147   -6.8248 H   0  0  0  0  0  0
    2.9143    3.2366   -5.9871 H   0  0  0  0  0  0
    4.3898    3.4983   -5.1481 H   0  0  0  0  0  0
    3.7813    0.9371   -6.7421 H   0  0  0  0  0  0
    4.6170    2.3151   -7.3542 H   0  0  0  0  0  0
    1.8672   -5.0096   -1.0650 H   0  0  0  0  0  0
    1.6325   -5.7992   -2.6208 H   0  0  0  0  0  0
    0.5592   -7.1469   -0.7553 H   0  0  0  0  0  0
    2.1235   -7.2763    0.0448 H   0  0  0  0  0  0
    1.8615   -8.0608   -1.5116 H   0  0  0  0  0  0
   -0.9342    6.8200    1.2058 H   0  0  0  0  0  0
    0.6895    4.9123    0.7301 H   0  0  0  0  0  0
   -5.0227    3.4844    0.4400 H   0  0  0  0  0  0
   -5.1081    5.1809    0.8464 H   0  0  0  0  0  0
    1.1123    1.9391   -6.1852 H   0  0  0  0  0  0
    0.1376    0.7260   -5.4070 H   0  0  0  0  0  0
    1.6439    0.2510   -6.2043 H   0  0  0  0  0  0
   -3.1866    6.3937    1.1251 H   0  0  0  0  0  0
  1 34  2  0  0  0
  1  2  1  0  0  0
  1 42  1  0  0  0
  2  3  2  0  0  0
  2  5  1  0  0  0
  3  4  1  0  0  0
  3 43  1  0  0  0
  4 35  2  0  0  0
  4 44  1  0  0  0
  5  6  1  0  0  0
  5 45  1  0  0  0
  6  7  1  0  0  0
  6 10  1  0  0  0
  6 46  1  0  0  0
  7  8  1  0  0  0
  7  9  2  0  0  0
  8 16  1  0  0  0
  8 47  1  0  0  0
 10 11  2  0  0  0
 10 15  1  0  0  0
 11 12  1  0  0  0
 11 48  1  0  0  0
 12 13  2  0  0  0
 12 41  1  0  0  0
 13 14  1  0  0  0
 13 27  1  0  0  0
 14 15  2  0  0  0
 14 49  1  0  0  0
 15 50  1  0  0  0
 16 17  1  0  0  0
 16 51  1  0  0  0
 16 52  1  0  0  0
 17 18  2  0  0  0
 17 22  1  0  0  0
 18 19  1  0  0  0
 18 29  1  0  0  0
 19 20  2  0  0  0
 19 53  1  0  0  0
 20 21  1  0  0  0
 20 54  1  0  0  0
 21 22  2  0  0  0
 21 23  1  0  0  0
 22 55  1  0  0  0
 23 24  1  0  0  0
 23 56  1  0  0  0
 24 25  1  0  0  0
 24 26  2  0  0  0
 25 28  1  0  0  0
 25 57  1  0  0  0
 25 58  1  0  0  0
 27 28  1  0  0  0
 27 59  1  0  0  0
 27 60  1  0  0  0
 28 61  1  0  0  0
 28 62  1  0  0  0
 29 30  1  0  0  0
 29 31  2  0  0  0
 29 32  2  0  0  0
 30 33  1  0  0  0
 30 63  1  0  0  0
 30 64  1  0  0  0
 33 65  1  0  0  0
 33 66  1  0  0  0
 33 67  1  0  0  0
 34 35  1  0  0  0
 34 39  1  0  0  0
 35 36  1  0  0  0
 36 37  2  0  0  0
 36 40  1  0  0  0
 37 38  1  0  0  0
 37 75  1  0  0  0
 38 39  2  0  0  0
 38 68  1  0  0  0
 39 69  1  0  0  0
 40 70  1  0  0  0
 40 71  1  0  0  0
 41 72  1  0  0  0
 41 73  1  0  0  0
 41 74  1  0  0  0
M  CHG  1  37   1
M  END
> <chembl_id>
CHEMBL3594314

> <chembl_pref_name>
None

> <i_m_ct_stereo_status>
1

> <s_m_source_file>
sdf/inactives_sanitized.sdf

> <i_m_source_file_index>
213

> <i_lp_mmshare_version>
49012

> <i_f3d_flags>
0

> <s_epik_input>
W2NIXTFbY0hdbmMoW05IMl0pYyhjMTIpW2NIXVtjSF1jKFtjSF0yKVtOSF1bQ0BIXTNDKD1PKVtOSF1bQ0gyXWMoW2NIXTQpYyhTKD1PKSg9TylbQ0gyXVtDSDNdKVtjSF1bY0hdYzRbTkhdQyg9TylbQ0gyXVtDSDJdW0NIMl1jKGMoW2NIXWMzNSlbQ0gzXSlbY0hdW2NIXTU=

> <s_epik_cmdline>
J2VwaWtfcHl0aG9uJywgJy1waHQnLCAnMC41JywgJy1waCcsICc3LjUnLCAnLW50JywgJy1tYScsICcyMDAnLCAnLWltYWUnLCAnPGluZmlsZS5tYWU+JywgJy1vbWFlJywgJzxvdXRmaWxlLm1hZT4n

> <r_epik_Ionization_Penalty>
  0.0146

> <r_epik_Ionization_Penalty_Charging>
  0.0146

> <r_epik_Ionization_Penalty_Neutral>
  0.0000

> <r_epik_State_Penalty>
  0.0115

> <r_epik_Charging_Adjusted_Penalty>
0.0260960353672975

> <i_epik_Tot_Q>
1

> <i_epik_Tot_abs_Q>
1

> <s_lp_Force_Field>
OPLS3e

> <r_lp_Energy>
55.576895

> <b_lp_Chiralities_Consistent>
1

> <s_lp_Variant>
sdf/inactives_sanitized.sdf:213-1

$$$$
sdf/inactives_sanitized.sdf:214
                    3D
 Schrodinger Suite 2020-1.
 65 69  0  0  1  0            999 V2000
   -9.6942   -0.6809   -0.5371 C   0  0  0  0  0  0
   -8.5293   -1.0240    0.4139 C   0  0  2  0  0  0
   -7.2320   -1.3877   -0.3672 C   0  0  0  0  0  0
   -6.5058   -0.1872   -1.0312 C   0  0  0  0  0  0
   -4.9570   -0.3030   -1.0656 C   0  0  0  0  0  0
   -4.2048    0.2214    0.2009 C   0  0  2  0  0  0
   -2.7259    0.1720    0.0751 N   0  0  0  0  0  0
   -2.0830   -1.0114   -0.5721 C   0  0  0  0  0  0
   -0.6295   -1.2647   -0.0890 C   0  0  0  0  0  0
    0.1165    0.0536   -0.0492 C   0  0  0  0  0  0
   -0.5607    1.1571    0.3205 C   0  0  0  0  0  0
   -1.9808    1.2035    0.5935 C   0  0  0  0  0  0
   -2.4488    2.1270    1.2620 O   0  0  0  0  0  0
    1.5996    0.0624   -0.0988 C   0  0  0  0  0  0
    2.3231    0.2219    1.0969 C   0  0  0  0  0  0
    1.6545    0.3885    2.2670 F   0  0  0  0  0  0
    3.7245    0.2016    1.0919 C   0  0  0  0  0  0
    4.4095    0.0129   -0.1086 C   0  0  0  0  0  0
    3.7051   -0.1599   -1.2966 C   0  0  0  0  0  0
    2.3075   -0.1419   -1.3039 C   0  0  0  0  0  0
    1.6311   -0.3256   -2.5871 C   0  0  0  0  0  0
    1.0944   -0.4713   -3.6019 N   0  0  0  0  0  0
    4.4823    0.3696    2.3258 C   0  0  0  0  0  0
    5.0842    0.5028    3.3051 N   0  0  0  0  0  0
   -4.7276   -0.4203    1.4898 C   0  0  0  0  0  0
   -5.8251    0.1476    2.1397 C   0  0  0  0  0  0
   -6.4728   -0.5764    3.1438 C   0  0  0  0  0  0
   -5.9140   -1.7913    3.5594 C   0  0  0  0  0  0
   -4.7548   -2.2497    2.9298 C   0  0  0  0  0  0
   -4.1697   -1.5948    1.8945 N   0  0  0  0  0  0
   -7.7706   -0.0872    3.6717 C   0  0  0  0  0  0
   -7.7969    1.1076    4.4022 C   0  0  0  0  0  0
   -8.9939    1.6164    4.9035 C   0  0  0  0  0  0
  -10.1879    0.9364    4.6782 C   0  0  0  0  0  0
  -10.1859   -0.2482    3.9451 C   0  0  0  0  0  0
   -8.9912   -0.7571    3.4252 C   0  0  0  0  0  0
   -9.0791   -1.9659    2.7159 N   0  0  0  0  0  0
   -8.9252   -2.1667    1.3869 C   0  0  0  0  0  0
   -9.1058   -3.2936    0.9268 O   0  0  0  0  0  0
  -10.5914   -0.4001    0.0169 H   0  0  0  0  0  0
   -9.9557   -1.5233   -1.1794 H   0  0  0  0  0  0
   -9.4401    0.1597   -1.1835 H   0  0  0  0  0  0
   -8.3320   -0.1239    0.9918 H   0  0  0  0  0  0
   -6.5406   -1.8945    0.3053 H   0  0  0  0  0  0
   -7.4514   -2.1401   -1.1270 H   0  0  0  0  0  0
   -6.8784   -0.0922   -2.0521 H   0  0  0  0  0  0
   -6.7800    0.7507   -0.5469 H   0  0  0  0  0  0
   -4.6871   -1.3361   -1.2860 H   0  0  0  0  0  0
   -4.6024    0.2769   -1.9191 H   0  0  0  0  0  0
   -4.4838    1.2754    0.2619 H   0  0  0  0  0  0
   -2.7152   -1.8981   -0.5323 H   0  0  0  0  0  0
   -2.0178   -0.7594   -1.6316 H   0  0  0  0  0  0
   -0.6709   -1.6753    0.9211 H   0  0  0  0  0  0
   -0.1292   -2.0005   -0.7193 H   0  0  0  0  0  0
   -0.0127    2.0785    0.4620 H   0  0  0  0  0  0
    5.4904   -0.0064   -0.1329 H   0  0  0  0  0  0
    4.2619   -0.3089   -2.2118 H   0  0  0  0  0  0
   -6.2489    1.0751    1.7823 H   0  0  0  0  0  0
   -6.3792   -2.3771    4.3389 H   0  0  0  0  0  0
   -4.3006   -3.1836    3.2264 H   0  0  0  0  0  0
   -6.8792    1.6470    4.5888 H   0  0  0  0  0  0
   -8.9947    2.5367    5.4688 H   0  0  0  0  0  0
  -11.1149    1.3275    5.0709 H   0  0  0  0  0  0
  -11.1202   -0.7650    3.7776 H   0  0  0  0  0  0
   -9.4111   -2.7537    3.2529 H   0  0  0  0  0  0
  1  2  1  0  0  0
  1 40  1  0  0  0
  1 41  1  0  0  0
  1 42  1  0  0  0
  2  3  1  0  0  0
  2 38  1  0  0  0
  2 43  1  0  0  0
  3  4  1  0  0  0
  3 44  1  0  0  0
  3 45  1  0  0  0
  4  5  1  0  0  0
  4 46  1  0  0  0
  4 47  1  0  0  0
  5  6  1  0  0  0
  5 48  1  0  0  0
  5 49  1  0  0  0
  6  7  1  0  0  0
  6 25  1  0  0  0
  6 50  1  0  0  0
  7  8  1  0  0  0
  7 12  1  0  0  0
  8  9  1  0  0  0
  8 51  1  0  0  0
  8 52  1  0  0  0
  9 10  1  0  0  0
  9 53  1  0  0  0
  9 54  1  0  0  0
 10 11  2  0  0  0
 10 14  1  0  0  0
 11 12  1  0  0  0
 11 55  1  0  0  0
 12 13  2  0  0  0
 14 15  2  0  0  0
 14 20  1  0  0  0
 15 16  1  0  0  0
 15 17  1  0  0  0
 17 18  2  0  0  0
 17 23  1  0  0  0
 18 19  1  0  0  0
 18 56  1  0  0  0
 19 20  2  0  0  0
 19 57  1  0  0  0
 20 21  1  0  0  0
 21 22  3  0  0  0
 23 24  3  0  0  0
 25 26  1  0  0  0
 25 30  2  0  0  0
 26 27  2  0  0  0
 26 58  1  0  0  0
 27 28  1  0  0  0
 27 31  1  0  0  0
 28 29  2  0  0  0
 28 59  1  0  0  0
 29 30  1  0  0  0
 29 60  1  0  0  0
 31 32  2  0  0  0
 31 36  1  0  0  0
 32 33  1  0  0  0
 32 61  1  0  0  0
 33 34  2  0  0  0
 33 62  1  0  0  0
 34 35  1  0  0  0
 34 63  1  0  0  0
 35 36  2  0  0  0
 35 64  1  0  0  0
 36 37  1  0  0  0
 37 38  1  0  0  0
 37 65  1  0  0  0
 38 39  2  0  0  0
M  END
> <chembl_id>
CHEMBL4106981

> <chembl_pref_name>
None

> <i_m_ct_stereo_status>
1

> <s_m_source_file>
sdf/inactives_sanitized.sdf

> <i_m_source_file_index>
214

> <i_lp_mmshare_version>
49012

> <i_f3d_flags>
0

> <s_epik_input>
bjFbY0hdW2NIXWMoW2NIXWMxMiljM2MoW2NIXVtjSF1bY0hdW2NIXTMpW05IXUMoPU8pW0NASF0oW0NIM10pW0NIMl1bQ0gyXVtDSDJdW0NAQEhdMk40W0NIMl1bQ0gyXUMoPVtDSF1DND1PKWM1YyhGKWMoQyNOKVtjSF1bY0hdYzVDI04=

> <s_epik_cmdline>
J2VwaWtfcHl0aG9uJywgJy1waHQnLCAnMC41JywgJy1waCcsICc3LjUnLCAnLW50JywgJy1tYScsICcyMDAnLCAnLWltYWUnLCAnPGluZmlsZS5tYWU+JywgJy1vbWFlJywgJzxvdXRmaWxlLm1hZT4n

> <r_lp_tautomer_probability>
1

> <r_epik_Ionization_Penalty>
  0.0001

> <r_epik_Ionization_Penalty_Charging>
  0.0000

> <r_epik_Ionization_Penalty_Neutral>
  0.0001

> <r_epik_State_Penalty>
 -0.0000

> <r_epik_Charging_Adjusted_Penalty>
0

> <i_epik_Tot_Q>
0

> <i_epik_Tot_abs_Q>
0

> <s_lp_Force_Field>
OPLS3e

> <r_lp_Energy>
93.002721

> <b_lp_Chiralities_Consistent>
1

> <s_lp_Variant>
sdf/inactives_sanitized.sdf:214-1

$$$$
sdf/inactives_sanitized.sdf:215
                    3D
 Schrodinger Suite 2020-1.
 66 70  0  0  1  0            999 V2000
   -2.4111    0.7764    0.4110 C   0  0  1  0  0  0
   -2.8677    0.2512   -0.9795 C   0  0  0  0  0  0
   -4.3691   -0.1048   -0.9177 C   0  0  0  0  0  0
   -4.6551   -1.1816    0.1560 C   0  0  1  0  0  0
   -4.1536   -0.6697    1.5317 C   0  0  0  0  0  0
   -2.6506   -0.3168    1.4909 C   0  0  0  0  0  0
   -0.9048    1.1136    0.3545 C   0  0  0  0  0  0
   -0.5296    2.2629    0.5897 O   0  0  0  0  0  0
   -0.0554    0.1119    0.0493 N   0  0  0  0  0  0
   -6.1492   -1.5744    0.1537 C   0  0  0  0  0  0
   -6.4246   -2.6839    1.1748 N   0  3  0  0  0  0
    1.4104    0.1956   -0.0089 C   0  0  1  0  0  0
    2.0484   -1.1939   -0.2515 C   0  0  0  0  0  0
    1.5589   -2.2808    0.7009 C   0  0  0  0  0  0
    0.5170   -3.1306    0.3175 C   0  0  0  0  0  0
    0.0606   -4.1105    1.1951 C   0  0  0  0  0  0
    0.6489   -4.2391    2.4516 C   0  0  0  0  0  0
    1.6891   -3.3968    2.8389 C   0  0  0  0  0  0
    2.1447   -2.4153    1.9625 C   0  0  0  0  0  0
    1.8961    1.1976   -1.0518 C   0  0  0  0  0  0
    1.4308    1.3110   -2.2764 N   0  0  0  0  0  0
    2.1269    2.2830   -2.8583 C   0  0  0  0  0  0
    3.0902    2.7826   -1.9771 C   0  0  0  0  0  0
    2.9258    2.0685   -0.8241 N   0  0  0  0  0  0
    4.3043    3.9926   -2.1195 Cl  0  0  0  0  0  0
    0.7069    1.5273   -7.6344 N   0  0  0  0  0  0
    0.5928    2.3576   -8.6878 N   0  0  0  0  0  0
    0.9429    3.5474   -8.2732 C   0  0  0  0  0  0
    1.3084    3.5352   -6.8911 C   0  0  0  0  0  0
    1.7467    4.4721   -5.9439 C   0  0  0  0  0  0
    2.0037    4.0366   -4.6446 C   0  0  0  0  0  0
    1.8402    2.6983   -4.2687 C   0  0  0  0  0  0
    1.3996    1.7441   -5.1985 C   0  0  0  0  0  0
    1.1415    2.1849   -6.5000 C   0  0  0  0  0  0
    0.9491    4.6488   -9.0806 N   0  0  0  0  0  0
   -2.9240    1.7057    0.6688 H   0  0  0  0  0  0
   -2.7609    1.0188   -1.7485 H   0  0  0  0  0  0
   -2.3523   -0.6691   -1.2633 H   0  0  0  0  0  0
   -4.9663    0.7881   -0.7234 H   0  0  0  0  0  0
   -4.7069   -0.4576   -1.8934 H   0  0  0  0  0  0
   -4.0637   -2.0608   -0.1089 H   0  0  0  0  0  0
   -4.7389    0.1987    1.8399 H   0  0  0  0  0  0
   -4.3369   -1.4148    2.3067 H   0  0  0  0  0  0
   -2.3890    0.0457    2.4868 H   0  0  0  0  0  0
   -2.1298   -1.2485    1.2581 H   0  0  0  0  0  0
   -0.4290   -0.8250    0.0866 H   0  0  0  0  0  0
   -6.4742   -2.0014   -0.7960 H   0  0  0  0  0  0
   -6.8119   -0.7572    0.4421 H   0  0  0  0  0  0
   -7.4025   -2.9364    1.1592 H   0  0  0  0  0  0
   -6.1851   -2.3682    2.1039 H   0  0  0  0  0  0
    1.7390    0.5207    0.9813 H   0  0  0  0  0  0
    1.8650   -1.5176   -1.2780 H   0  0  0  0  0  0
    3.1344   -1.1236   -0.1687 H   0  0  0  0  0  0
    0.0576   -3.0289   -0.6552 H   0  0  0  0  0  0
   -0.7450   -4.7677    0.9028 H   0  0  0  0  0  0
    0.2961   -4.9999    3.1325 H   0  0  0  0  0  0
    2.1394   -3.5040    3.8149 H   0  0  0  0  0  0
    2.9485   -1.7597    2.2652 H   0  0  0  0  0  0
    3.4562    2.1692    0.0296 H   0  0  0  0  0  0
    0.4825    0.5476   -7.7320 H   0  0  0  0  0  0
    1.8794    5.5105   -6.2093 H   0  0  0  0  0  0
    2.3261    4.7663   -3.9172 H   0  0  0  0  0  0
    1.2668    0.7083   -4.9209 H   0  0  0  0  0  0
    1.2991    5.5398   -8.7587 H   0  0  0  0  0  0
    0.6694    4.5933  -10.0496 H   0  0  0  0  0  0
   -5.8735   -3.5019    0.9568 H   0  0  0  0  0  0
  1  2  1  0  0  0
  1  6  1  0  0  0
  1  7  1  0  0  0
  1 36  1  0  0  0
  2  3  1  0  0  0
  2 37  1  0  0  0
  2 38  1  0  0  0
  3  4  1  0  0  0
  3 39  1  0  0  0
  3 40  1  0  0  0
  4  5  1  0  0  0
  4 10  1  0  0  0
  4 41  1  0  0  0
  5  6  1  0  0  0
  5 42  1  0  0  0
  5 43  1  0  0  0
  6 44  1  0  0  0
  6 45  1  0  0  0
  7  8  2  0  0  0
  7  9  1  0  0  0
  9 12  1  0  0  0
  9 46  1  0  0  0
 10 11  1  0  0  0
 10 47  1  0  0  0
 10 48  1  0  0  0
 11 49  1  0  0  0
 11 50  1  0  0  0
 11 66  1  0  0  0
 12 13  1  0  0  0
 12 20  1  0  0  0
 12 51  1  0  0  0
 13 14  1  0  0  0
 13 52  1  0  0  0
 13 53  1  0  0  0
 14 15  2  0  0  0
 14 19  1  0  0  0
 15 16  1  0  0  0
 15 54  1  0  0  0
 16 17  2  0  0  0
 16 55  1  0  0  0
 17 18  1  0  0  0
 17 56  1  0  0  0
 18 19  2  0  0  0
 18 57  1  0  0  0
 19 58  1  0  0  0
 20 21  2  0  0  0
 20 24  1  0  0  0
 21 22  1  0  0  0
 22 23  2  0  0  0
 22 32  1  0  0  0
 23 24  1  0  0  0
 23 25  1  0  0  0
 24 59  1  0  0  0
 26 27  1  0  0  0
 26 34  1  0  0  0
 26 60  1  0  0  0
 27 28  2  0  0  0
 28 29  1  0  0  0
 28 35  1  0  0  0
 29 30  2  0  0  0
 29 34  1  0  0  0
 30 31  1  0  0  0
 30 61  1  0  0  0
 31 32  2  0  0  0
 31 62  1  0  0  0
 32 33  1  0  0  0
 33 34  2  0  0  0
 33 63  1  0  0  0
 35 64  1  0  0  0
 35 65  1  0  0  0
M  CHG  1  11   1
M  END
> <chembl_id>
CHEMBL3398612

> <chembl_pref_name>
None

> <i_m_ct_stereo_status>
1

> <s_m_source_file>
sdf/inactives_sanitized.sdf

> <i_m_source_file_index>
215

> <i_lp_mmshare_version>
49012

> <i_f3d_flags>
0

> <s_epik_input>
W0NIMl0xW0NIMl1bQ0BASF0oW0NIMl1bTkgyXSlbQ0gyXVtDSDJdW0NAQEhdMUMoPU8pW05IXVtDQEBIXShbQ0gyXWMyW2NIXVtjSF1bY0hdW2NIXVtjSF0yKWMzbmMoYyhDbClbbkhdMyktYyhbY0hdW2NIXTQpW2NIXWMoYzQ1KVtuSF1uYzVbTkgyXQ==

> <s_epik_cmdline>
J2VwaWtfcHl0aG9uJywgJy1waHQnLCAnMC41JywgJy1waCcsICc3LjUnLCAnLW50JywgJy1tYScsICcyMDAnLCAnLWltYWUnLCAnPGluZmlsZS5tYWU+JywgJy1vbWFlJywgJzxvdXRmaWxlLm1hZT4n

> <r_lp_tautomer_probability>
1

> <r_epik_Ionization_Penalty>
  0.0048

> <r_epik_Ionization_Penalty_Charging>
  0.0044

> <r_epik_Ionization_Penalty_Neutral>
  0.0005

> <r_epik_State_Penalty>
 -0.0000

> <r_epik_Charging_Adjusted_Penalty>
0.00437365433758375

> <i_epik_Tot_Q>
1

> <i_epik_Tot_abs_Q>
1

> <s_lp_Force_Field>
OPLS3e

> <r_lp_Energy>
47.133698

> <b_lp_Chiralities_Consistent>
1

> <s_lp_Variant>
sdf/inactives_sanitized.sdf:215-1

$$$$
sdf/inactives_sanitized.sdf:216
                    3D
 Schrodinger Suite 2020-1.
 67 72  0  0  1  0            999 V2000
   -5.3207    1.6020   -0.8680 C   0  0  0  0  0  0
   -4.2089    0.8331   -1.6119 C   0  0  2  0  0  0
   -2.8417    1.5730   -1.5383 C   0  0  0  0  0  0
   -2.1682    1.5695   -0.1391 C   0  0  0  0  0  0
   -0.6149    1.5421   -0.1630 C   0  0  0  0  0  0
    0.0347    0.1215   -0.2014 C   0  0  2  0  0  0
    1.5138    0.1216   -0.0437 N   0  0  0  0  0  0
    2.3417    1.1713   -0.7111 C   0  0  0  0  0  0
    3.7345    1.3404   -0.0492 C   0  0  0  0  0  0
    4.3596   -0.0299    0.1317 C   0  0  0  0  0  0
    3.5486   -1.0656    0.4225 C   0  0  0  0  0  0
    2.1039   -1.0002    0.4926 C   0  0  0  0  0  0
    1.4803   -1.9060    1.0494 O   0  0  0  0  0  0
    5.8267   -0.1536    0.2753 C   0  0  0  0  0  0
    6.6612    0.1481   -0.8118 C   0  0  0  0  0  0
    6.1351    0.5383   -1.9971 F   0  0  0  0  0  0
    8.0465    0.0405   -0.6922 C   0  0  0  0  0  0
    8.6160   -0.3675    0.5114 C   0  0  0  0  0  0
    7.8010   -0.6683    1.6017 C   0  0  0  0  0  0
    8.5231   -1.1681    3.0900 Cl  0  0  0  0  0  0
    6.4113   -0.5613    1.4870 C   0  0  0  0  0  0
    5.6325   -0.8432    2.5597 F   0  0  0  0  0  0
   -0.4596   -0.6863   -1.4051 C   0  0  0  0  0  0
   -1.6289   -1.4401   -1.2870 C   0  0  0  0  0  0
   -2.2287   -1.9188   -2.4532 C   0  0  0  0  0  0
   -1.5871   -1.7505   -3.6845 C   0  0  0  0  0  0
   -0.3635   -1.0775   -3.7016 C   0  0  0  0  0  0
    0.1935   -0.5289   -2.5905 N   0  0  0  0  0  0
   -3.5320   -2.4339   -2.3835 N   0  0  0  0  0  0
   -3.7658   -3.5744   -1.7146 N   0  0  0  0  0  0
   -5.0632   -3.7824   -1.7924 C   0  0  0  0  0  0
   -5.6936   -2.7548   -2.5053 C   0  0  0  0  0  0
   -4.6973   -1.8643   -2.8568 C   0  0  0  0  0  0
   -4.7834   -0.6870   -3.5784 N   0  0  0  0  0  0
   -4.6126    0.5628   -3.0882 C   0  0  0  0  0  0
   -4.7714    1.5260   -3.8372 O   0  0  0  0  0  0
   -5.6752   -5.0035   -1.1428 C   0  0  0  0  0  0
   -6.9184   -4.8885   -0.3012 C   0  0  0  0  0  0
   -5.5796   -5.2187    0.3448 C   0  0  0  0  0  0
   -6.2694    1.0640   -0.9037 H   0  0  0  0  0  0
   -5.4885    2.5908   -1.2977 H   0  0  0  0  0  0
   -5.0697    1.7382    0.1843 H   0  0  0  0  0  0
   -4.1001   -0.1163   -1.0922 H   0  0  0  0  0  0
   -2.1609    1.1323   -2.2656 H   0  0  0  0  0  0
   -2.9559    2.6040   -1.8778 H   0  0  0  0  0  0
   -2.5001    2.4610    0.3950 H   0  0  0  0  0  0
   -2.5285    0.7347    0.4633 H   0  0  0  0  0  0
   -0.2718    2.1546   -0.9970 H   0  0  0  0  0  0
   -0.2599    2.0434    0.7387 H   0  0  0  0  0  0
   -0.3657   -0.3784    0.6832 H   0  0  0  0  0  0
    2.5608    0.7695   -1.7019 H   0  0  0  0  0  0
    1.8176    2.1061   -0.8968 H   0  0  0  0  0  0
    4.3690    2.0028   -0.6385 H   0  0  0  0  0  0
    3.6015    1.8058    0.9284 H   0  0  0  0  0  0
    3.9954   -2.0234    0.6511 H   0  0  0  0  0  0
    8.6809    0.2720   -1.5352 H   0  0  0  0  0  0
    9.6898   -0.4488    0.5962 H   0  0  0  0  0  0
   -2.1343   -1.5242   -0.3351 H   0  0  0  0  0  0
   -2.0324   -2.1083   -4.6016 H   0  0  0  0  0  0
    0.1678   -0.9259   -4.6295 H   0  0  0  0  0  0
   -6.7483   -2.6679   -2.7211 H   0  0  0  0  0  0
   -5.1183   -0.7688   -4.5273 H   0  0  0  0  0  0
   -5.6000   -5.9011   -1.7575 H   0  0  0  0  0  0
   -7.3557   -3.9026   -0.1393 H   0  0  0  0  0  0
   -7.6748   -5.6687   -0.3883 H   0  0  0  0  0  0
   -5.0814   -4.4622    0.9524 H   0  0  0  0  0  0
   -5.3993   -6.2299    0.7101 H   0  0  0  0  0  0
  1  2  1  0  0  0
  1 40  1  0  0  0
  1 41  1  0  0  0
  1 42  1  0  0  0
  2  3  1  0  0  0
  2 35  1  0  0  0
  2 43  1  0  0  0
  3  4  1  0  0  0
  3 44  1  0  0  0
  3 45  1  0  0  0
  4  5  1  0  0  0
  4 46  1  0  0  0
  4 47  1  0  0  0
  5  6  1  0  0  0
  5 48  1  0  0  0
  5 49  1  0  0  0
  6  7  1  0  0  0
  6 23  1  0  0  0
  6 50  1  0  0  0
  7  8  1  0  0  0
  7 12  1  0  0  0
  8  9  1  0  0  0
  8 51  1  0  0  0
  8 52  1  0  0  0
  9 10  1  0  0  0
  9 53  1  0  0  0
  9 54  1  0  0  0
 10 11  2  0  0  0
 10 14  1  0  0  0
 11 12  1  0  0  0
 11 55  1  0  0  0
 12 13  2  0  0  0
 14 15  2  0  0  0
 14 21  1  0  0  0
 15 16  1  0  0  0
 15 17  1  0  0  0
 17 18  2  0  0  0
 17 56  1  0  0  0
 18 19  1  0  0  0
 18 57  1  0  0  0
 19 20  1  0  0  0
 19 21  2  0  0  0
 21 22  1  0  0  0
 23 24  1  0  0  0
 23 28  2  0  0  0
 24 25  2  0  0  0
 24 58  1  0  0  0
 25 26  1  0  0  0
 25 29  1  0  0  0
 26 27  2  0  0  0
 26 59  1  0  0  0
 27 28  1  0  0  0
 27 60  1  0  0  0
 29 30  1  0  0  0
 29 33  1  0  0  0
 30 31  2  0  0  0
 31 32  1  0  0  0
 31 37  1  0  0  0
 32 33  2  0  0  0
 32 61  1  0  0  0
 33 34  1  0  0  0
 34 35  1  0  0  0
 34 62  1  0  0  0
 35 36  2  0  0  0
 37 38  1  0  0  0
 37 39  1  0  0  0
 37 63  1  0  0  0
 38 39  1  0  0  0
 38 64  1  0  0  0
 38 65  1  0  0  0
 39 66  1  0  0  0
 39 67  1  0  0  0
M  END
> <chembl_id>
CHEMBL4107466

> <chembl_pref_name>
None

> <i_m_ct_stereo_status>
1

> <s_m_source_file>
sdf/inactives_sanitized.sdf

> <i_m_source_file_index>
216

> <i_lp_mmshare_version>
49012

> <i_f3d_flags>
0

> <s_epik_input>
bjFbY0hdW2NIXWMoW2NIXWMxMiluM2MoW2NIXWMobjMpW0NIXTRbQ0gyXVtDSDJdNClbTkhdQyg9TylbQ0BIXShbQ0gzXSlbQ0gyXVtDSDJdW0NIMl1bQ0BASF0yTjVbQ0gyXVtDSDJdQyg9W0NIXUM1PU8pYzZjKEYpW2NIXVtjSF1jKENsKWM2Rg==

> <s_epik_cmdline>
J2VwaWtfcHl0aG9uJywgJy1waHQnLCAnMC41JywgJy1waCcsICc3LjUnLCAnLW50JywgJy1tYScsICcyMDAnLCAnLWltYWUnLCAnPGluZmlsZS5tYWU+JywgJy1vbWFlJywgJzxvdXRmaWxlLm1hZT4n

> <r_lp_tautomer_probability>
1

> <r_epik_Ionization_Penalty>
  0.0000

> <r_epik_Ionization_Penalty_Charging>
  0.0000

> <r_epik_Ionization_Penalty_Neutral>
  0.0000

> <r_epik_State_Penalty>
 -0.0000

> <r_epik_Charging_Adjusted_Penalty>
0

> <i_epik_Tot_Q>
0

> <i_epik_Tot_abs_Q>
0

> <s_lp_Force_Field>
OPLS3e

> <r_lp_Energy>
98.779738

> <b_lp_Chiralities_Consistent>
1

> <s_lp_Variant>
sdf/inactives_sanitized.sdf:216-1

$$$$
sdf/inactives_sanitized.sdf:217
                    3D
 Schrodinger Suite 2020-1.
 70 74  0  0  1  0            999 V2000
    4.5951   -1.1759    1.9370 C   0  0  0  0  0  0
    5.5238   -0.5413    2.7677 C   0  0  0  0  0  0
    6.2752   -1.2754    3.6806 C   0  0  0  0  0  0
    6.1055   -2.6568    3.7824 C   0  0  0  0  0  0
    5.1712   -3.3001    2.9576 C   0  0  0  0  0  0
    4.4240   -2.5599    2.0453 C   0  0  0  0  0  0
    6.9068   -3.3081    4.7363 N   0  0  0  0  0  0
    6.9729   -4.6575    5.0704 C   0  0  0  0  0  0
    7.8867   -4.8060    6.0512 O   0  0  0  0  0  0
    6.3258   -5.5843    4.5782 O   0  0  0  0  0  0
    8.1692   -6.0877    6.5960 C   0  0  0  0  0  0
   -3.2309    7.8761    1.9957 C   0  0  0  0  0  0
   -3.5363    8.2281    0.6842 C   0  0  0  0  0  0
   -3.1558    7.3958   -0.3639 C   0  0  0  0  0  0
   -2.4639    6.2148   -0.0995 C   0  0  0  0  0  0
   -2.1371    5.8413    1.2143 C   0  0  0  0  0  0
   -2.5432    6.6861    2.2737 C   0  0  0  0  0  0
   -2.3024    6.3662    3.6296 N   0  0  0  0  0  0
   -2.5671    5.2010    4.3129 C   0  0  0  0  0  0
   -2.2090    5.3015    5.5674 N   0  0  0  0  0  0
   -1.6991    6.5898    5.6950 N   0  0  0  0  0  0
   -1.7649    7.2511    4.4826 N   0  0  0  0  0  0
   -3.5343    7.8300   -1.9910 Cl  0  0  0  0  0  0
   -1.3706    4.5930    1.4556 C   0  0  0  0  0  0
   -1.3082    3.5221    0.6339 C   0  0  0  0  0  0
   -0.5179    2.3520    0.9415 C   0  0  0  0  0  0
   -0.5919    1.4001   -0.0079 N   0  0  0  0  0  0
    0.1617    2.2374    1.9644 O   0  0  0  0  0  0
    0.1019    0.1047    0.0180 C   0  0  2  0  0  0
    1.6318    0.2219    0.0609 C   0  0  0  0  0  0
   -0.3622   -0.7680   -1.1738 C   0  0  0  0  0  0
    0.1676   -2.1976   -1.1327 C   0  0  0  0  0  0
    1.3255   -2.5339   -1.8406 C   0  0  0  0  0  0
    1.8232   -3.8328   -1.7829 C   0  0  0  0  0  0
    1.1597   -4.7922   -1.0210 C   0  0  0  0  0  0
    0.0028   -4.4649   -0.3166 C   0  0  0  0  0  0
   -0.4943   -3.1653   -0.3722 C   0  0  0  0  0  0
    2.2170    1.0735   -0.8245 N   0  0  0  0  0  0
    3.5523    1.2019   -0.8460 N   0  0  0  0  0  0
    4.3266    0.4870    0.0154 C   0  0  0  0  0  0
    3.7782   -0.3937    0.9680 C   0  0  0  0  0  0
    2.3847   -0.5194    0.9732 C   0  0  0  0  0  0
    5.8242    0.6987   -0.1596 C   0  0  0  0  0  0
    5.6613    0.5287    2.7141 H   0  0  0  0  0  0
    6.9867   -0.7599    4.3102 H   0  0  0  0  0  0
    5.0008   -4.3634    3.0004 H   0  0  0  0  0  0
    3.7078   -3.0694    1.4163 H   0  0  0  0  0  0
    7.5249   -2.7012    5.2546 H   0  0  0  0  0  0
    8.9278   -6.0010    7.3740 H   0  0  0  0  0  0
    8.5467   -6.7643    5.8281 H   0  0  0  0  0  0
    7.2765   -6.5304    7.0400 H   0  0  0  0  0  0
   -3.5454    8.5291    2.7976 H   0  0  0  0  0  0
   -4.0717    9.1446    0.4847 H   0  0  0  0  0  0
   -2.1648    5.6000   -0.9357 H   0  0  0  0  0  0
   -3.0183    4.3525    3.8198 H   0  0  0  0  0  0
   -0.7970    4.5739    2.3723 H   0  0  0  0  0  0
   -1.8602    3.5021   -0.2958 H   0  0  0  0  0  0
   -1.2296    1.5433   -0.7772 H   0  0  0  0  0  0
   -0.2264   -0.4002    0.9300 H   0  0  0  0  0  0
   -1.4526   -0.8125   -1.2006 H   0  0  0  0  0  0
   -0.0821   -0.3011   -2.1202 H   0  0  0  0  0  0
    1.8461   -1.7884   -2.4245 H   0  0  0  0  0  0
    2.7205   -4.0944   -2.3241 H   0  0  0  0  0  0
    1.5465   -5.7997   -0.9754 H   0  0  0  0  0  0
   -0.5044   -5.2153    0.2717 H   0  0  0  0  0  0
   -1.3880   -2.9107    0.1791 H   0  0  0  0  0  0
    1.8958   -1.1831    1.6722 H   0  0  0  0  0  0
    6.3800   -0.2190    0.0341 H   0  0  0  0  0  0
    6.1788    1.4692    0.5250 H   0  0  0  0  0  0
    6.0704    1.0125   -1.1754 H   0  0  0  0  0  0
  1  2  2  0  0  0
  1  6  1  0  0  0
  1 41  1  0  0  0
  2  3  1  0  0  0
  2 44  1  0  0  0
  3  4  2  0  0  0
  3 45  1  0  0  0
  4  5  1  0  0  0
  4  7  1  0  0  0
  5  6  2  0  0  0
  5 46  1  0  0  0
  6 47  1  0  0  0
  7  8  1  0  0  0
  7 48  1  0  0  0
  8  9  1  0  0  0
  8 10  2  0  0  0
  9 11  1  0  0  0
 11 49  1  0  0  0
 11 50  1  0  0  0
 11 51  1  0  0  0
 12 13  2  0  0  0
 12 17  1  0  0  0
 12 52  1  0  0  0
 13 14  1  0  0  0
 13 53  1  0  0  0
 14 15  2  0  0  0
 14 23  1  0  0  0
 15 16  1  0  0  0
 15 54  1  0  0  0
 16 17  2  0  0  0
 16 24  1  0  0  0
 17 18  1  0  0  0
 18 19  1  0  0  0
 18 22  1  0  0  0
 19 20  2  0  0  0
 19 55  1  0  0  0
 20 21  1  0  0  0
 21 22  2  0  0  0
 24 25  2  0  0  0
 24 56  1  0  0  0
 25 26  1  0  0  0
 25 57  1  0  0  0
 26 27  1  0  0  0
 26 28  2  0  0  0
 27 29  1  0  0  0
 27 58  1  0  0  0
 29 30  1  0  0  0
 29 31  1  0  0  0
 29 59  1  0  0  0
 30 38  2  0  0  0
 30 42  1  0  0  0
 31 32  1  0  0  0
 31 60  1  0  0  0
 31 61  1  0  0  0
 32 33  2  0  0  0
 32 37  1  0  0  0
 33 34  1  0  0  0
 33 62  1  0  0  0
 34 35  2  0  0  0
 34 63  1  0  0  0
 35 36  1  0  0  0
 35 64  1  0  0  0
 36 37  2  0  0  0
 36 65  1  0  0  0
 37 66  1  0  0  0
 38 39  1  0  0  0
 39 40  2  0  0  0
 40 41  1  0  0  0
 40 43  1  0  0  0
 41 42  2  0  0  0
 42 67  1  0  0  0
 43 68  1  0  0  0
 43 69  1  0  0  0
 43 70  1  0  0  0
M  END
> <chembl_id>
CHEMBL4226631

> <chembl_pref_name>
None

> <i_m_ct_stereo_status>
1

> <s_m_source_file>
sdf/inactives_sanitized.sdf

> <i_m_source_file_index>
217

> <i_lp_mmshare_version>
49012

> <i_f3d_flags>
0

> <s_epik_input>
W0NIM11PQyg9TylbTkhdYyhbY0hdW2NIXTEpW2NIXVtjSF1jMS1jKFtjSF0yKWMoW0NIM10pbm5jMltDQEhdKFtDSDJdYzNbY0hdW2NIXVtjSF1bY0hdW2NIXTMpW05IXUMoPU8pXFtDSF09W0NIXVxjKFtjSF00KWMoW2NIXVtjSF1jNENsKS1uNVtjSF1ubm41

> <s_epik_cmdline>
J2VwaWtfcHl0aG9uJywgJy1waHQnLCAnMC41JywgJy1waCcsICc3LjUnLCAnLW50JywgJy1tYScsICcyMDAnLCAnLWltYWUnLCAnPGluZmlsZS5tYWU+JywgJy1vbWFlJywgJzxvdXRmaWxlLm1hZT4n

> <r_lp_tautomer_probability>
1

> <r_epik_Ionization_Penalty>
  0.0001

> <r_epik_Ionization_Penalty_Charging>
  0.0000

> <r_epik_Ionization_Penalty_Neutral>
  0.0001

> <r_epik_State_Penalty>
 -0.0000

> <r_epik_Charging_Adjusted_Penalty>
0

> <i_epik_Tot_Q>
0

> <i_epik_Tot_abs_Q>
0

> <s_epik_Chemistry_Notes>
This compound has an ester and may undergo hydrolysis at high or low pH.

> <s_lp_Force_Field>
OPLS3e

> <r_lp_Energy>
54.439898

> <b_lp_Chiralities_Consistent>
1

> <s_lp_Variant>
sdf/inactives_sanitized.sdf:217-1

$$$$
sdf/inactives_sanitized.sdf:218
                    3D
 Schrodinger Suite 2020-1.
 65 69  0  0  1  0            999 V2000
   -9.2018    2.7916    2.3710 C   0  0  0  0  0  0
   -7.9651    2.3581    1.5528 C   0  0  2  0  0  0
   -7.0696    1.3939    2.4086 C   0  0  0  0  0  0
   -6.0605    0.4676    1.6732 C   0  0  0  0  0  0
   -4.7249    1.1178    1.2190 C   0  0  0  0  0  0
   -4.1116    0.5501   -0.1101 C   0  0  2  0  0  0
   -2.6353    0.3890   -0.0517 N   0  0  0  0  0  0
   -2.0890   -0.9172   -0.5141 C   0  0  0  0  0  0
   -0.6774   -1.2051    0.0617 C   0  0  0  0  0  0
    0.1872    0.0268   -0.1272 C   0  0  0  0  0  0
   -0.3920    1.2385   -0.0212 C   0  0  0  0  0  0
   -1.8100    1.4716    0.1555 C   0  0  0  0  0  0
   -2.2092    2.5834    0.5043 O   0  0  0  0  0  0
    1.6655   -0.1030   -0.1151 C   0  0  0  0  0  0
    2.3736    0.2369    1.0518 C   0  0  0  0  0  0
    1.6967    0.6954    2.1361 F   0  0  0  0  0  0
    3.7673    0.0998    1.1066 C   0  0  0  0  0  0
    4.4591   -0.3893   -0.0017 C   0  0  0  0  0  0
    3.7688   -0.7427   -1.1573 C   0  0  0  0  0  0
    2.3790   -0.6084   -1.2247 C   0  0  0  0  0  0
    1.7187   -0.9911   -2.4718 C   0  0  0  0  0  0
    1.1949   -1.2941   -3.4581 N   0  0  0  0  0  0
    4.5106    0.4584    2.3081 C   0  0  0  0  0  0
    5.1010    0.7432    3.2616 N   0  0  0  0  0  0
   -4.6494    1.2712   -1.3700 C   0  0  0  0  0  0
   -5.9865    1.6560   -1.4181 C   0  0  0  0  0  0
   -6.4630    2.4712   -2.4384 C   0  0  0  0  0  0
   -5.5891    2.7916   -3.4840 C   0  0  0  0  0  0
   -4.2751    2.3135   -3.4285 C   0  0  0  0  0  0
   -3.7966    1.5763   -2.3897 N   0  0  0  0  0  0
   -7.8605    2.9771   -2.3361 C   0  0  0  0  0  0
   -8.7873    2.7009   -3.3539 C   0  0  0  0  0  0
   -8.4063    2.0170   -4.4594 F   0  0  0  0  0  0
  -10.1183    3.1038   -3.2328 C   0  0  0  0  0  0
  -11.0033    2.8260   -4.2173 F   0  0  0  0  0  0
  -10.5429    3.7894   -2.0974 C   0  0  0  0  0  0
   -9.6367    4.0860   -1.0827 C   0  0  0  0  0  0
   -8.3018    3.6821   -1.1901 C   0  0  0  0  0  0
   -7.3964    4.1121   -0.2031 N   0  0  0  0  0  0
   -7.2209    3.6235    1.0464 C   0  0  0  0  0  0
   -6.4484    4.2014    1.8097 O   0  0  0  0  0  0
   -9.8746    3.4242    1.7915 H   0  0  0  0  0  0
   -8.9189    3.3507    3.2647 H   0  0  0  0  0  0
   -9.7838    1.9281    2.6952 H   0  0  0  0  0  0
   -8.3461    1.7930    0.7024 H   0  0  0  0  0  0
   -6.5553    1.9440    3.1986 H   0  0  0  0  0  0
   -7.7405    0.7207    2.9451 H   0  0  0  0  0  0
   -5.8007   -0.3470    2.3512 H   0  0  0  0  0  0
   -6.5672   -0.0433    0.8558 H   0  0  0  0  0  0
   -4.8376    2.1958    1.1200 H   0  0  0  0  0  0
   -4.0150    1.0011    2.0397 H   0  0  0  0  0  0
   -4.5115   -0.4602   -0.2025 H   0  0  0  0  0  0
   -2.8027   -1.7367   -0.4255 H   0  0  0  0  0  0
   -1.9281   -0.7919   -1.5864 H   0  0  0  0  0  0
   -0.7711   -1.4169    1.1278 H   0  0  0  0  0  0
   -0.2347   -2.0856   -0.4050 H   0  0  0  0  0  0
    0.2388    2.1164   -0.0478 H   0  0  0  0  0  0
    5.5343   -0.5032    0.0215 H   0  0  0  0  0  0
    4.3302   -1.1216   -2.0008 H   0  0  0  0  0  0
   -6.6669    1.3853   -0.6379 H   0  0  0  0  0  0
   -5.9135    3.4089   -4.3092 H   0  0  0  0  0  0
   -3.5734    2.5434   -4.2166 H   0  0  0  0  0  0
  -11.5722    4.1047   -2.0102 H   0  0  0  0  0  0
   -9.9717    4.6512   -0.2250 H   0  0  0  0  0  0
   -6.7925    4.8729   -0.4790 H   0  0  0  0  0  0
  1  2  1  0  0  0
  1 42  1  0  0  0
  1 43  1  0  0  0
  1 44  1  0  0  0
  2  3  1  0  0  0
  2 40  1  0  0  0
  2 45  1  0  0  0
  3  4  1  0  0  0
  3 46  1  0  0  0
  3 47  1  0  0  0
  4  5  1  0  0  0
  4 48  1  0  0  0
  4 49  1  0  0  0
  5  6  1  0  0  0
  5 50  1  0  0  0
  5 51  1  0  0  0
  6  7  1  0  0  0
  6 25  1  0  0  0
  6 52  1  0  0  0
  7  8  1  0  0  0
  7 12  1  0  0  0
  8  9  1  0  0  0
  8 53  1  0  0  0
  8 54  1  0  0  0
  9 10  1  0  0  0
  9 55  1  0  0  0
  9 56  1  0  0  0
 10 11  2  0  0  0
 10 14  1  0  0  0
 11 12  1  0  0  0
 11 57  1  0  0  0
 12 13  2  0  0  0
 14 15  2  0  0  0
 14 20  1  0  0  0
 15 16  1  0  0  0
 15 17  1  0  0  0
 17 18  2  0  0  0
 17 23  1  0  0  0
 18 19  1  0  0  0
 18 58  1  0  0  0
 19 20  2  0  0  0
 19 59  1  0  0  0
 20 21  1  0  0  0
 21 22  3  0  0  0
 23 24  3  0  0  0
 25 26  1  0  0  0
 25 30  2  0  0  0
 26 27  2  0  0  0
 26 60  1  0  0  0
 27 28  1  0  0  0
 27 31  1  0  0  0
 28 29  2  0  0  0
 28 61  1  0  0  0
 29 30  1  0  0  0
 29 62  1  0  0  0
 31 32  2  0  0  0
 31 38  1  0  0  0
 32 33  1  0  0  0
 32 34  1  0  0  0
 34 35  1  0  0  0
 34 36  2  0  0  0
 36 37  1  0  0  0
 36 63  1  0  0  0
 37 38  2  0  0  0
 37 64  1  0  0  0
 38 39  1  0  0  0
 39 40  1  0  0  0
 39 65  1  0  0  0
 40 41  2  0  0  0
M  END
> <chembl_id>
CHEMBL4106802

> <chembl_pref_name>
None

> <i_m_ct_stereo_status>
1

> <s_m_source_file>
sdf/inactives_sanitized.sdf

> <i_m_source_file_index>
218

> <i_lp_mmshare_version>
49012

> <i_f3d_flags>
0

> <s_epik_input>
bjFbY0hdW2NIXWMoW2NIXWMxMiljM2MoW2NIXVtjSF1jKEYpYzNGKVtOSF1DKD1PKVtDQEhdKFtDSDNdKVtDSDJdW0NIMl1bQ0gyXVtDQEBIXTJONFtDSDJdW0NIMl1DKD1bQ0hdQzQ9TyljNWMoRiljKEMjTilbY0hdW2NIXWM1QyNO

> <s_epik_cmdline>
J2VwaWtfcHl0aG9uJywgJy1waHQnLCAnMC41JywgJy1waCcsICc3LjUnLCAnLW50JywgJy1tYScsICcyMDAnLCAnLWltYWUnLCAnPGluZmlsZS5tYWU+JywgJy1vbWFlJywgJzxvdXRmaWxlLm1hZT4n

> <r_lp_tautomer_probability>
1

> <r_epik_Ionization_Penalty>
  0.0001

> <r_epik_Ionization_Penalty_Charging>
  0.0000

> <r_epik_Ionization_Penalty_Neutral>
  0.0001

> <r_epik_State_Penalty>
 -0.0000

> <r_epik_Charging_Adjusted_Penalty>
0

> <i_epik_Tot_Q>
0

> <i_epik_Tot_abs_Q>
0

> <s_lp_Force_Field>
OPLS3e

> <r_lp_Energy>
94.883585

> <b_lp_Chiralities_Consistent>
1

> <s_lp_Variant>
sdf/inactives_sanitized.sdf:218-1

$$$$
sdf/inactives_sanitized.sdf:219
                    3D
 Schrodinger Suite 2020-1.
 78 82  0  0  1  0            999 V2000
    0.1417    2.4459    0.0812 C   0  0  0  0  0  0
   -0.3886    1.1866   -0.2102 C   0  0  0  0  0  0
   -1.7568    1.0450   -0.4289 C   0  0  0  0  0  0
   -2.6129    2.1408   -0.3595 C   0  0  0  0  0  0
   -0.6987    3.5822    0.1618 C   0  0  0  0  0  0
   -2.1054    3.4342   -0.0622 C   0  0  0  0  0  0
   -2.9218    4.6023    0.0263 C   0  0  0  0  0  0
   -2.3596    5.7898    0.3124 N   0  3  0  0  0  0
   -1.0451    5.9624    0.5294 C   0  0  0  0  0  0
   -0.1814    4.8710    0.4611 C   0  0  0  0  0  0
   -4.3202    4.5703   -0.1755 N   0  0  0  0  0  0
    0.4206    0.0445   -0.2873 N   0  0  0  0  0  0
    1.8377   -0.0816   -0.0013 C   0  0  2  0  0  0
    2.3020   -1.4807   -0.4720 C   0  0  0  0  0  0
    3.5820   -1.5642   -0.8783 N   0  0  0  0  0  0
    1.5534   -2.4579   -0.3823 O   0  0  0  0  0  0
    2.1924    0.1012    1.4595 C   0  0  0  0  0  0
    3.3003    0.8820    1.8038 C   0  0  0  0  0  0
    3.6964    0.9920    3.1329 C   0  0  0  0  0  0
    3.0021    0.3004    4.1274 C   0  0  0  0  0  0
    1.8700   -0.4464    3.7963 C   0  0  0  0  0  0
    1.4641   -0.5421    2.4694 C   0  0  0  0  0  0
    4.2883   -2.8284   -1.1128 C   0  0  0  0  0  0
    4.6241   -3.6707    0.1335 C   0  0  0  0  0  0
    4.7735   -5.0782    0.0905 C   0  0  0  0  0  0
    4.9763   -5.7805    1.2854 C   0  0  0  0  0  0
    5.0483   -5.1224    2.5086 C   0  0  0  0  0  0
    4.9501   -3.7352    2.5638 C   0  0  0  0  0  0
    4.7231   -3.0231    1.3780 C   0  0  0  0  0  0
    5.0445   -3.1348    3.8330 N   0  0  0  0  0  0
    5.4724   -1.8877    4.1274 C   0  0  0  0  0  0
    5.4104   -1.4786    5.6064 C   0  0  0  0  0  0
    5.9439   -1.0989    3.3075 O   0  0  0  0  0  0
    3.4911    0.3362    5.5697 C   0  0  0  0  0  0
    4.0166   -1.0197    6.1049 C   0  0  0  0  0  0
    4.7813   -6.0776   -1.4267 S   0  0  0  0  0  0
    3.0032   -6.7714   -1.6228 C   0  0  0  0  0  0
    5.0786   -5.2028   -2.5664 O   0  0  0  0  0  0
    5.6746   -7.2138   -1.1684 O   0  0  0  0  0  0
    2.0022   -5.6083   -1.7500 C   0  0  0  0  0  0
    2.6614   -7.6451   -0.3974 C   0  0  0  0  0  0
    2.9935   -7.6280   -2.9052 C   0  0  0  0  0  0
    1.2006    2.5734    0.2540 H   0  0  0  0  0  0
   -2.1703    0.0722   -0.6555 H   0  0  0  0  0  0
   -3.6701    2.0021   -0.5326 H   0  0  0  0  0  0
   -0.7312    6.9725    0.7507 H   0  0  0  0  0  0
    0.8779    4.9982    0.6339 H   0  0  0  0  0  0
   -4.7814    3.6969   -0.3870 H   0  0  0  0  0  0
   -4.8637    5.4190   -0.1082 H   0  0  0  0  0  0
   -0.0585   -0.8268   -0.4670 H   0  0  0  0  0  0
    2.3400    0.6796   -0.6027 H   0  0  0  0  0  0
    4.1445   -0.7257   -0.8916 H   0  0  0  0  0  0
    3.8737    1.3864    1.0398 H   0  0  0  0  0  0
    4.5703    1.5774    3.3800 H   0  0  0  0  0  0
    1.3203   -0.9753    4.5612 H   0  0  0  0  0  0
    0.6065   -1.1509    2.2223 H   0  0  0  0  0  0
    3.6908   -3.3969   -1.8207 H   0  0  0  0  0  0
    5.2269   -2.5951   -1.6161 H   0  0  0  0  0  0
    5.0851   -6.8551    1.2750 H   0  0  0  0  0  0
    5.2061   -5.6991    3.4089 H   0  0  0  0  0  0
    4.6012   -1.9521    1.4243 H   0  0  0  0  0  0
    4.8611   -3.7495    4.6123 H   0  0  0  0  0  0
    5.7311   -2.3350    6.2019 H   0  0  0  0  0  0
    6.1498   -0.7003    5.8018 H   0  0  0  0  0  0
    4.2522    1.1079    5.6963 H   0  0  0  0  0  0
    2.6514    0.6605    6.1863 H   0  0  0  0  0  0
    4.0820   -0.9309    7.1902 H   0  0  0  0  0  0
    3.2785   -1.8059    5.9372 H   0  0  0  0  0  0
    0.9825   -5.9714   -1.8844 H   0  0  0  0  0  0
    2.2353   -4.9703   -2.6027 H   0  0  0  0  0  0
    2.0113   -4.9841   -0.8575 H   0  0  0  0  0  0
    2.6153   -7.0558    0.5182 H   0  0  0  0  0  0
    3.4078   -8.4249   -0.2422 H   0  0  0  0  0  0
    1.6954   -8.1376   -0.5161 H   0  0  0  0  0  0
    2.0110   -8.0632   -3.0930 H   0  0  0  0  0  0
    3.7117   -8.4466   -2.8418 H   0  0  0  0  0  0
    3.2657   -7.0354   -3.7797 H   0  0  0  0  0  0
   -2.9612    6.5991    0.3668 H   0  0  0  0  0  0
  1  5  2  0  0  0
  1  2  1  0  0  0
  1 43  1  0  0  0
  2  3  2  0  0  0
  2 12  1  0  0  0
  3  4  1  0  0  0
  3 44  1  0  0  0
  4  6  2  0  0  0
  4 45  1  0  0  0
  5  6  1  0  0  0
  5 10  1  0  0  0
  6  7  1  0  0  0
  7  8  2  0  0  0
  7 11  1  0  0  0
  8  9  1  0  0  0
  8 78  1  0  0  0
  9 10  2  0  0  0
  9 46  1  0  0  0
 10 47  1  0  0  0
 11 48  1  0  0  0
 11 49  1  0  0  0
 12 13  1  0  0  0
 12 50  1  0  0  0
 13 14  1  0  0  0
 13 17  1  0  0  0
 13 51  1  0  0  0
 14 15  1  0  0  0
 14 16  2  0  0  0
 15 23  1  0  0  0
 15 52  1  0  0  0
 17 18  2  0  0  0
 17 22  1  0  0  0
 18 19  1  0  0  0
 18 53  1  0  0  0
 19 20  2  0  0  0
 19 54  1  0  0  0
 20 21  1  0  0  0
 20 34  1  0  0  0
 21 22  2  0  0  0
 21 55  1  0  0  0
 22 56  1  0  0  0
 23 24  1  0  0  0
 23 57  1  0  0  0
 23 58  1  0  0  0
 24 25  2  0  0  0
 24 29  1  0  0  0
 25 26  1  0  0  0
 25 36  1  0  0  0
 26 27  2  0  0  0
 26 59  1  0  0  0
 27 28  1  0  0  0
 27 60  1  0  0  0
 28 29  2  0  0  0
 28 30  1  0  0  0
 29 61  1  0  0  0
 30 31  1  0  0  0
 30 62  1  0  0  0
 31 32  1  0  0  0
 31 33  2  0  0  0
 32 35  1  0  0  0
 32 63  1  0  0  0
 32 64  1  0  0  0
 34 35  1  0  0  0
 34 65  1  0  0  0
 34 66  1  0  0  0
 35 67  1  0  0  0
 35 68  1  0  0  0
 36 37  1  0  0  0
 36 38  2  0  0  0
 36 39  2  0  0  0
 37 40  1  0  0  0
 37 41  1  0  0  0
 37 42  1  0  0  0
 40 69  1  0  0  0
 40 70  1  0  0  0
 40 71  1  0  0  0
 41 72  1  0  0  0
 41 73  1  0  0  0
 41 74  1  0  0  0
 42 75  1  0  0  0
 42 76  1  0  0  0
 42 77  1  0  0  0
M  CHG  1   8   1
M  END
> <chembl_id>
CHEMBL3594312

> <chembl_pref_name>
None

> <s_m_source_file>
sdf/inactives_sanitized.sdf

> <i_m_source_file_index>
219

> <i_lp_mmshare_version>
49012

> <i_m_ct_stereo_status>
1

> <i_f3d_flags>
0

> <s_epik_input>
W2NIXTFbY0hdbmMoW05IMl0pYyhjMTIpW2NIXVtjSF1jKFtjSF0yKVtOSF1bQ0BASF0zQyg9TylbTkhdW0NIMl1jKFtjSF00KWMoUyg9TykoPU8pQyhbQ0gzXSkoW0NIM10pW0NIM10pW2NIXVtjSF1jNFtOSF1DKD1PKVtDSDJdW0NIMl1bQ0gyXWMoW2NIXVtjSF1jMzUpW2NIXVtjSF01

> <s_epik_cmdline>
J2VwaWtfcHl0aG9uJywgJy1waHQnLCAnMC41JywgJy1waCcsICc3LjUnLCAnLW50JywgJy1tYScsICcyMDAnLCAnLWltYWUnLCAnPGluZmlsZS5tYWU+JywgJy1vbWFlJywgJzxvdXRmaWxlLm1hZT4n

> <r_epik_Ionization_Penalty>
  0.0146

> <r_epik_Ionization_Penalty_Charging>
  0.0146

> <r_epik_Ionization_Penalty_Neutral>
  0.0000

> <r_epik_State_Penalty>
  0.0115

> <r_epik_Charging_Adjusted_Penalty>
0.0260960353672975

> <i_epik_Tot_Q>
1

> <i_epik_Tot_abs_Q>
1

> <s_lp_Force_Field>
OPLS3e

> <r_lp_Energy>
60.258369

> <b_lp_Chiralities_Consistent>
1

> <s_lp_Variant>
sdf/inactives_sanitized.sdf:219-1

$$$$
sdf/inactives_sanitized.sdf:220
                    3D
 Schrodinger Suite 2020-1.
 81 86  0  0  1  0            999 V2000
  -10.0746   -6.2971   -0.3303 C   0  0  0  0  0  0
   -9.3253   -5.2482   -0.9284 O   0  0  0  0  0  0
   -7.9846   -5.1937   -0.7952 C   0  0  0  0  0  0
   -7.3153   -6.0129   -0.1620 O   0  0  0  0  0  0
   -7.5210   -4.0821   -1.4926 N   0  0  0  0  0  0
   -6.2083   -3.6021   -1.6399 C   0  0  0  0  0  0
   -5.0913   -4.1214   -0.9701 C   0  0  0  0  0  0
   -3.8269   -3.5783   -1.1895 C   0  0  0  0  0  0
   -3.6399   -2.5119   -2.0759 C   0  0  0  0  0  0
   -4.7701   -1.9696   -2.7265 C   0  0  0  0  0  0
   -4.6972   -0.9103   -3.6454 N   0  0  0  0  0  0
   -4.4547    0.3970   -3.3965 C   0  0  0  0  0  0
   -4.4952    1.2002   -4.3277 O   0  0  0  0  0  0
   -4.1256    0.9271   -1.9750 C   0  0  2  0  0  0
   -5.2716    1.8079   -1.4364 C   0  0  0  0  0  0
   -2.7627    1.6813   -1.9711 C   0  0  0  0  0  0
   -2.1234    1.8878   -0.5718 C   0  0  0  0  0  0
   -0.5710    1.8151   -0.5518 C   0  0  0  0  0  0
    0.0308    0.3864   -0.3600 C   0  0  2  0  0  0
    1.5073    0.3620   -0.1865 N   0  0  0  0  0  0
    2.3791    1.2365   -1.0286 C   0  0  0  0  0  0
    3.7728    1.4775   -0.3897 C   0  0  0  0  0  0
    4.3414    0.1426    0.0519 C   0  0  0  0  0  0
    3.4913   -0.7991    0.5040 C   0  0  0  0  0  0
    2.0506   -0.6667    0.5491 C   0  0  0  0  0  0
    1.3914   -1.4314    1.2564 O   0  0  0  0  0  0
    5.8074   -0.0391    0.1907 C   0  0  0  0  0  0
    6.5558   -1.0073   -0.5177 C   0  0  0  0  0  0
    7.9381   -1.1274   -0.3447 C   0  0  0  0  0  0
    8.6434   -0.2983    0.5232 C   0  0  0  0  0  0
    7.9391    0.6810    1.2348 C   0  0  0  0  0  0
    8.2626    1.6996    2.1842 C   0  0  0  0  0  0
    9.5147    1.9659    2.6609 N   0  0  0  0  0  0
    7.2008    2.3638    2.5552 N   0  0  0  0  0  0
    6.1585    1.8324    1.8919 N   0  0  0  0  0  0
    6.5371    0.7953    1.0566 C   0  0  0  0  0  0
    5.9230   -1.9144   -1.4737 C   0  0  0  0  0  0
    5.4211   -2.6321   -2.2303 N   0  0  0  0  0  0
   -0.4810   -0.5887   -1.4241 C   0  0  0  0  0  0
   -1.6597   -1.2966   -1.1931 C   0  0  0  0  0  0
   -2.2743   -1.9590   -2.2567 C   0  0  0  0  0  0
   -1.6145   -2.0024   -3.4909 C   0  0  0  0  0  0
   -0.3784   -1.3462   -3.6309 C   0  0  0  0  0  0
    0.3765   -1.3162   -4.7860 O   0  0  0  0  0  0
   -0.0929   -2.0180   -5.9313 C   0  0  0  0  0  0
    0.1734   -0.6331   -2.6155 N   0  0  0  0  0  0
   -6.0347   -2.5272   -2.5143 C   0  0  0  0  0  0
  -11.1342   -6.1682   -0.5516 H   0  0  0  0  0  0
   -9.9514   -6.2986    0.7538 H   0  0  0  0  0  0
   -9.7633   -7.2691   -0.7159 H   0  0  0  0  0  0
   -8.2276   -3.5403   -1.9682 H   0  0  0  0  0  0
   -5.1702   -4.9401   -0.2732 H   0  0  0  0  0  0
   -2.9805   -3.9963   -0.6635 H   0  0  0  0  0  0
   -4.9736   -1.1424   -4.5883 H   0  0  0  0  0  0
   -4.0447    0.0822   -1.2950 H   0  0  0  0  0  0
   -6.2151    1.2607   -1.4098 H   0  0  0  0  0  0
   -5.4252    2.6957   -2.0521 H   0  0  0  0  0  0
   -5.0667    2.1441   -0.4194 H   0  0  0  0  0  0
   -2.0589    1.1468   -2.6081 H   0  0  0  0  0  0
   -2.8711    2.6506   -2.4612 H   0  0  0  0  0  0
   -2.4392    2.8626   -0.1976 H   0  0  0  0  0  0
   -2.5223    1.1717    0.1475 H   0  0  0  0  0  0
   -0.1905    2.2858   -1.4583 H   0  0  0  0  0  0
   -0.2191    2.4359    0.2734 H   0  0  0  0  0  0
   -0.3942    0.0487    0.5876 H   0  0  0  0  0  0
    2.5924    0.6431   -1.9196 H   0  0  0  0  0  0
    1.8916    2.1339   -1.4030 H   0  0  0  0  0  0
    4.4414    1.9839   -1.0868 H   0  0  0  0  0  0
    3.6467    2.1269    0.4774 H   0  0  0  0  0  0
    3.9003   -1.7215    0.8925 H   0  0  0  0  0  0
    8.4930   -1.8753   -0.8953 H   0  0  0  0  0  0
    9.7116   -0.4093    0.6392 H   0  0  0  0  0  0
   10.3375    1.5477    2.2509 H   0  0  0  0  0  0
    9.6711    2.6879    3.3499 H   0  0  0  0  0  0
    5.2279    2.1981    2.0336 H   0  0  0  0  0  0
   -2.1608   -1.2221   -0.2385 H   0  0  0  0  0  0
   -2.0744   -2.5201   -4.3191 H   0  0  0  0  0  0
    0.6250   -1.9023   -6.7431 H   0  0  0  0  0  0
   -1.0493   -1.6232   -6.2780 H   0  0  0  0  0  0
   -0.1964   -3.0858   -5.7319 H   0  0  0  0  0  0
   -6.8909   -2.1170   -3.0329 H   0  0  0  0  0  0
  1  2  1  0  0  0
  1 48  1  0  0  0
  1 49  1  0  0  0
  1 50  1  0  0  0
  2  3  1  0  0  0
  3  4  2  0  0  0
  3  5  1  0  0  0
  5  6  1  0  0  0
  5 51  1  0  0  0
  6  7  2  0  0  0
  6 47  1  0  0  0
  7  8  1  0  0  0
  7 52  1  0  0  0
  8  9  2  0  0  0
  8 53  1  0  0  0
  9 10  1  0  0  0
  9 41  1  0  0  0
 10 11  1  0  0  0
 10 47  2  0  0  0
 11 12  1  0  0  0
 11 54  1  0  0  0
 12 13  2  0  0  0
 12 14  1  0  0  0
 14 15  1  0  0  0
 14 16  1  0  0  0
 14 55  1  0  0  0
 15 56  1  0  0  0
 15 57  1  0  0  0
 15 58  1  0  0  0
 16 17  1  0  0  0
 16 59  1  0  0  0
 16 60  1  0  0  0
 17 18  1  0  0  0
 17 61  1  0  0  0
 17 62  1  0  0  0
 18 19  1  0  0  0
 18 63  1  0  0  0
 18 64  1  0  0  0
 19 20  1  0  0  0
 19 39  1  0  0  0
 19 65  1  0  0  0
 20 21  1  0  0  0
 20 25  1  0  0  0
 21 22  1  0  0  0
 21 66  1  0  0  0
 21 67  1  0  0  0
 22 23  1  0  0  0
 22 68  1  0  0  0
 22 69  1  0  0  0
 23 24  2  0  0  0
 23 27  1  0  0  0
 24 25  1  0  0  0
 24 70  1  0  0  0
 25 26  2  0  0  0
 27 28  2  0  0  0
 27 36  1  0  0  0
 28 29  1  0  0  0
 28 37  1  0  0  0
 29 30  2  0  0  0
 29 71  1  0  0  0
 30 31  1  0  0  0
 30 72  1  0  0  0
 31 32  1  0  0  0
 31 36  2  0  0  0
 32 33  1  0  0  0
 32 34  2  0  0  0
 33 73  1  0  0  0
 33 74  1  0  0  0
 34 35  1  0  0  0
 35 36  1  0  0  0
 35 75  1  0  0  0
 37 38  3  0  0  0
 39 40  1  0  0  0
 39 46  2  0  0  0
 40 41  2  0  0  0
 40 76  1  0  0  0
 41 42  1  0  0  0
 42 43  2  0  0  0
 42 77  1  0  0  0
 43 44  1  0  0  0
 43 46  1  0  0  0
 44 45  1  0  0  0
 45 78  1  0  0  0
 45 79  1  0  0  0
 45 80  1  0  0  0
 47 81  1  0  0  0
M  END
> <chembl_id>
CHEMBL4107259

> <chembl_pref_name>
None

> <i_m_ct_stereo_status>
1

> <s_m_source_file>
sdf/inactives_sanitized.sdf

> <i_m_source_file_index>
220

> <i_lp_mmshare_version>
49012

> <i_f3d_flags>
0

> <s_epik_input>
W0NIM11PQyg9TylbTkhdYyhbY0hdW2NIXTEpW2NIXWMoYzEyKVtOSF1DKD1PKVtDQEhdKFtDSDNdKVtDSDJdW0NIMl1bQ0gyXVtDQEBIXShjM1tjSF1jMltjSF1jKG4zKU9bQ0gzXSlONFtDSDJdW0NIMl1DKD1bQ0hdQzQ9TyljKGMoQyNOKVtjSF1bY0hdNSljKGM1NilbbkhdbmM2W05IMl0=

> <s_epik_cmdline>
J2VwaWtfcHl0aG9uJywgJy1waHQnLCAnMC41JywgJy1waCcsICc3LjUnLCAnLW50JywgJy1tYScsICcyMDAnLCAnLWltYWUnLCAnPGluZmlsZS5tYWU+JywgJy1vbWFlJywgJzxvdXRmaWxlLm1hZT4n

> <r_lp_tautomer_probability>
1

> <r_epik_Ionization_Penalty>
  0.0003

> <r_epik_Ionization_Penalty_Charging>
  0.0000

> <r_epik_Ionization_Penalty_Neutral>
  0.0003

> <r_epik_State_Penalty>
 -0.0000

> <r_epik_Charging_Adjusted_Penalty>
0

> <i_epik_Tot_Q>
0

> <i_epik_Tot_abs_Q>
0

> <s_epik_Chemistry_Notes>
This compound has an ester and may undergo hydrolysis at high or low pH.

> <s_lp_Force_Field>
OPLS3e

> <r_lp_Energy>
105.675556

> <b_lp_Chiralities_Consistent>
1

> <s_lp_Variant>
sdf/inactives_sanitized.sdf:220-1

$$$$
 
                    3D
 Schrodinger Suite 2020-1.
 71 75  0  0  1  0            999 V2000
   -1.3555    1.0527    0.3054 C   0  0  0  0  0  0
   -0.2176   -0.0073    0.1786 C   0  0  1  0  0  0
    1.1332    0.7859    0.2383 C   0  0  0  0  0  0
    2.0480    0.2847    1.1050 O   0  0  0  0  0  0
    3.3239    0.8923    1.2541 C   0  0  0  0  0  0
    4.1528    0.0870    2.2588 C   0  0  0  0  0  0
    1.3087    1.8070   -0.4338 O   0  0  0  0  0  0
   -0.3492   -0.9720    1.4103 C   0  0  0  0  0  0
    0.2750   -2.3748    1.2891 C   0  0  0  0  0  0
   -0.0166   -3.0261   -0.0703 C   0  0  0  0  0  0
    0.4119   -2.1715   -1.3018 C   0  0  2  0  0  0
   -0.3630   -0.7970   -1.1966 C   0  0  2  0  0  0
   -0.1465    0.0503   -2.4906 C   0  0  0  0  0  0
   -0.6514   -0.6625   -3.7535 C   0  0  0  0  0  0
   -0.0382   -2.0712   -3.9592 C   0  0  1  0  0  0
   -0.1058   -2.9013   -2.6152 C   0  0  1  0  0  0
    0.3211   -4.3958   -2.7966 C   0  0  0  0  0  0
   -0.0171   -5.0049   -4.1826 C   0  0  0  0  0  0
    0.0874   -4.0062   -5.3710 C   0  0  1  0  0  0
   -0.8224   -2.8146   -5.0471 C   0  0  0  0  0  0
    1.4713   -3.3359   -5.4477 C   0  0  0  0  0  0
    1.3643   -2.0453   -4.6183 C   0  0  0  0  0  0
    2.4782   -3.7841   -6.0818 N   0  0  0  0  0  0
    3.5850   -2.9226   -5.9365 O   0  0  0  0  0  0
    4.7740   -3.5733   -6.3772 C   0  0  0  0  0  0
    5.1745   -4.6934   -5.4312 C   0  0  0  0  0  0
    5.2711   -6.0378   -5.7825 C   0  0  0  0  0  0
    5.7438   -7.0673   -4.4707 S   0  0  0  0  0  0
    5.8298   -5.6961   -3.4204 C   0  0  0  0  0  0
    5.5047   -4.5176   -4.0772 C   0  0  0  0  0  0
   -0.3497   -4.6982   -6.6836 C   0  0  0  0  0  0
    1.9608   -1.9825   -1.3209 C   0  0  0  0  0  0
   -2.3394    0.5862    0.2421 H   0  0  0  0  0  0
   -1.3273    1.8184   -0.4702 H   0  0  0  0  0  0
   -1.3196    1.5709    1.2656 H   0  0  0  0  0  0
    3.8365    0.9242    0.2912 H   0  0  0  0  0  0
    3.2092    1.9204    1.6016 H   0  0  0  0  0  0
    5.1378    0.5343    2.3932 H   0  0  0  0  0  0
    4.2968   -0.9391    1.9186 H   0  0  0  0  0  0
    3.6664    0.0534    3.2340 H   0  0  0  0  0  0
   -0.1979   -0.4769    2.3714 H   0  0  0  0  0  0
   -1.4132   -1.2107    1.4706 H   0  0  0  0  0  0
    1.3470   -2.3208    1.4719 H   0  0  0  0  0  0
   -0.1115   -3.0126    2.0853 H   0  0  0  0  0  0
    0.4843   -3.9942   -0.0894 H   0  0  0  0  0  0
   -1.0836   -3.2503   -0.1247 H   0  0  0  0  0  0
   -1.4204   -1.0713   -1.2237 H   0  0  0  0  0  0
   -0.7246    0.9703   -2.4178 H   0  0  0  0  0  0
    0.8810    0.3928   -2.6033 H   0  0  0  0  0  0
   -1.7313   -0.7740   -3.6380 H   0  0  0  0  0  0
   -0.5385   -0.0437   -4.6450 H   0  0  0  0  0  0
   -1.1874   -2.9750   -2.4766 H   0  0  0  0  0  0
    1.4044   -4.4577   -2.7034 H   0  0  0  0  0  0
   -0.0682   -5.0281   -1.9988 H   0  0  0  0  0  0
    0.6201   -5.8734   -4.3600 H   0  0  0  0  0  0
   -1.0345   -5.3982   -4.1396 H   0  0  0  0  0  0
   -0.9730   -2.1815   -5.9265 H   0  0  0  0  0  0
   -1.8175   -3.1236   -4.7203 H   0  0  0  0  0  0
    2.1881   -1.9730   -3.9167 H   0  0  0  0  0  0
    1.4560   -1.1926   -5.2928 H   0  0  0  0  0  0
    4.6514   -3.9233   -7.4048 H   0  0  0  0  0  0
    5.5650   -2.8256   -6.4384 H   0  0  0  0  0  0
    5.0771   -6.4689   -6.7536 H   0  0  0  0  0  0
    6.1112   -5.8184   -2.3849 H   0  0  0  0  0  0
    5.4985   -3.5540   -3.5891 H   0  0  0  0  0  0
   -1.3675   -5.0835   -6.6106 H   0  0  0  0  0  0
    0.2995   -5.5405   -6.9275 H   0  0  0  0  0  0
   -0.3238   -4.0109   -7.5307 H   0  0  0  0  0  0
    2.2824   -1.1516   -1.9436 H   0  0  0  0  0  0
    2.4809   -2.8710   -1.6739 H   0  0  0  0  0  0
    2.3803   -1.7817   -0.3401 H   0  0  0  0  0  0
  1  2  1  0  0  0
  1 33  1  0  0  0
  1 34  1  0  0  0
  1 35  1  0  0  0
  2  3  1  0  0  0
  2  8  1  0  0  0
  2 12  1  0  0  0
  3  4  1  0  0  0
  3  7  2  0  0  0
  4  5  1  0  0  0
  5  6  1  0  0  0
  5 36  1  0  0  0
  5 37  1  0  0  0
  6 38  1  0  0  0
  6 39  1  0  0  0
  6 40  1  0  0  0
  8  9  1  0  0  0
  8 41  1  0  0  0
  8 42  1  0  0  0
  9 10  1  0  0  0
  9 43  1  0  0  0
  9 44  1  0  0  0
 10 11  1  0  0  0
 10 45  1  0  0  0
 10 46  1  0  0  0
 11 12  1  0  0  0
 11 16  1  0  0  0
 11 32  1  0  0  0
 12 13  1  0  0  0
 12 47  1  0  0  0
 13 14  1  0  0  0
 13 48  1  0  0  0
 13 49  1  0  0  0
 14 15  1  0  0  0
 14 50  1  0  0  0
 14 51  1  0  0  0
 15 16  1  0  0  0
 15 20  1  0  0  0
 15 22  1  0  0  0
 16 17  1  0  0  0
 16 52  1  0  0  0
 17 18  1  0  0  0
 17 53  1  0  0  0
 17 54  1  0  0  0
 18 19  1  0  0  0
 18 55  1  0  0  0
 18 56  1  0  0  0
 19 20  1  0  0  0
 19 21  1  0  0  0
 19 31  1  0  0  0
 20 57  1  0  0  0
 20 58  1  0  0  0
 21 22  1  0  0  0
 21 23  2  0  0  0
 22 59  1  0  0  0
 22 60  1  0  0  0
 23 24  1  0  0  0
 24 25  1  0  0  0
 25 26  1  0  0  0
 25 61  1  0  0  0
 25 62  1  0  0  0
 26 27  2  0  0  0
 26 30  1  0  0  0
 27 28  1  0  0  0
 27 63  1  0  0  0
 28 29  1  0  0  0
 29 30  2  0  0  0
 29 64  1  0  0  0
 30 65  1  0  0  0
 31 66  1  0  0  0
 31 67  1  0  0  0
 31 68  1  0  0  0
 32 69  1  0  0  0
 32 70  1  0  0  0
 32 71  1  0  0  0
M  END
> <chembl_id>
CHEMBL4439549

> <chembl_pref_name>
None

> <i_m_ct_stereo_status>
1

> <s_m_source_file>
sdf/inactives_sanitized.sdf

> <i_m_source_file_index>
221

> <i_lp_mmshare_version>
49012

> <i_f3d_flags>
0

> <s_epik_input>
W0NIM11bQ0gyXU9DKD1PKVtDQF0oW0NIM10pKFtDSDJdW0NIMl1bQ0gyXTEpW0NAQEhdKFtDSDJdW0NIMl0yKVtDQF0xKFtDSDNdKVtDQEBIXShbQ0BdMjM0KVtDSDJdW0NIMl1bQ0BdKFtDSDJdMykoW0NIM10pL0MoW0NIMl00KT1OL09bQ0gyXWM1W2NIXXNbY0hdW2NIXTU=

> <s_epik_cmdline>
J2VwaWtfcHl0aG9uJywgJy1waHQnLCAnMC41JywgJy1waCcsICc3LjUnLCAnLW50JywgJy1tYScsICcyMDAnLCAnLWltYWUnLCAnPGluZmlsZS5tYWU+JywgJy1vbWFlJywgJzxvdXRmaWxlLm1hZT4n

> <r_lp_tautomer_probability>
1

> <r_epik_Ionization_Penalty>
  0.0000

> <r_epik_Ionization_Penalty_Charging>
  0.0000

> <r_epik_Ionization_Penalty_Neutral>
  0.0000

> <r_epik_State_Penalty>
 -0.0000

> <r_epik_Charging_Adjusted_Penalty>
0

> <i_epik_Tot_Q>
0

> <i_epik_Tot_abs_Q>
0

> <s_epik_Chemistry_Notes>
This compound has an ester and may undergo hydrolysis at high or low pH. This compound has an imine and may undergo hydrolysis.

> <s_lp_Force_Field>
OPLS3e

> <r_lp_Energy>
55.063631

> <b_lp_Chiralities_Consistent>
1

> <s_lp_Variant>
 -1

$$$$
sdf/inactives_sanitized.sdf:222
                    3D
 Schrodinger Suite 2020-1.
 65 69  0  0  1  0            999 V2000
   -5.2360    1.8053   -0.9526 C   0  0  0  0  0  0
   -4.1213    0.9774   -1.6243 C   0  0  2  0  0  0
   -2.7305    1.6663   -1.4949 C   0  0  0  0  0  0
   -2.0915    1.5998   -0.0818 C   0  0  0  0  0  0
   -0.5419    1.4926   -0.0753 C   0  0  0  0  0  0
    0.0456    0.0469   -0.1787 C   0  0  2  0  0  0
    1.5269    0.0032   -0.0858 N   0  0  0  0  0  0
    2.3397    1.0470   -0.7800 C   0  0  0  0  0  0
    3.7664    0.5629   -1.1562 C   0  0  0  0  0  0
    4.3715   -0.1661    0.0299 C   0  0  0  0  0  0
    3.5510   -0.9241    0.7838 C   0  0  0  0  0  0
    2.1181   -1.0233    0.6096 C   0  0  0  0  0  0
    1.5073   -1.9902    1.0690 O   0  0  0  0  0  0
    5.8415   -0.2957    0.1762 C   0  0  0  0  0  0
    6.6437   -0.6847   -0.9091 C   0  0  0  0  0  0
    6.0944   -0.9689   -2.1132 F   0  0  0  0  0  0
    8.0245   -0.8042   -0.7623 C   0  0  0  0  0  0
    8.6261   -0.5382    0.4644 C   0  0  0  0  0  0
    7.8476   -0.1477    1.5555 C   0  0  0  0  0  0
    8.4970    0.1300    2.8304 C   0  0  0  0  0  0
    9.0128    0.3505    3.8425 N   0  0  0  0  0  0
    6.4578   -0.0255    1.4113 C   0  0  0  0  0  0
    5.7001    0.3685    2.4667 F   0  0  0  0  0  0
   -0.5132   -0.7226   -1.3797 C   0  0  0  0  0  0
   -1.7170   -1.4176   -1.2462 C   0  0  0  0  0  0
   -2.3637   -1.8872   -2.3922 C   0  0  0  0  0  0
   -1.7129   -1.7647   -3.6259 C   0  0  0  0  0  0
   -0.4623   -1.1449   -3.6688 C   0  0  0  0  0  0
    0.1329   -0.6084   -2.5730 N   0  0  0  0  0  0
   -3.7474   -2.4125   -2.2843 C   0  0  0  0  0  0
   -3.9669   -3.6008   -1.5757 C   0  0  0  0  0  0
   -5.2531   -4.1268   -1.4319 C   0  0  0  0  0  0
   -6.3407   -3.4603   -1.9976 C   0  0  0  0  0  0
   -6.1428   -2.2720   -2.6971 C   0  0  0  0  0  0
   -4.8599   -1.7334   -2.8310 C   0  0  0  0  0  0
   -4.7511   -0.5433   -3.5685 N   0  0  0  0  0  0
   -4.4607    0.6969   -3.1129 C   0  0  0  0  0  0
   -4.4653    1.6407   -3.9021 O   0  0  0  0  0  0
   -5.4586   -5.3659   -0.6969 C   0  0  0  0  0  0
   -5.6225   -6.3512   -0.1125 N   0  0  0  0  0  0
   -6.2026    1.3040   -1.0237 H   0  0  0  0  0  0
   -5.3425    2.7895   -1.4119 H   0  0  0  0  0  0
   -5.0302    1.9576    0.1073 H   0  0  0  0  0  0
   -4.0793    0.0309   -1.0900 H   0  0  0  0  0  0
   -2.0444    1.2242   -2.2164 H   0  0  0  0  0  0
   -2.7987    2.7091   -1.8101 H   0  0  0  0  0  0
   -2.3881    2.4965    0.4642 H   0  0  0  0  0  0
   -2.5058    0.7730    0.4960 H   0  0  0  0  0  0
   -0.1425    2.1394   -0.8567 H   0  0  0  0  0  0
   -0.1865    1.9212    0.8632 H   0  0  0  0  0  0
   -0.3427   -0.4646    0.7046 H   0  0  0  0  0  0
    1.8022    1.5045   -1.6102 H   0  0  0  0  0  0
    2.4658    1.8474   -0.0496 H   0  0  0  0  0  0
    3.6718   -0.1279   -1.9951 H   0  0  0  0  0  0
    4.3897    1.3970   -1.4806 H   0  0  0  0  0  0
    3.9802   -1.5398    1.5620 H   0  0  0  0  0  0
    8.6317   -1.1085   -1.6022 H   0  0  0  0  0  0
    9.6988   -0.6390    0.5556 H   0  0  0  0  0  0
   -2.2076   -1.4766   -0.2851 H   0  0  0  0  0  0
   -2.1756   -2.1231   -4.5339 H   0  0  0  0  0  0
    0.0641   -1.0336   -4.6053 H   0  0  0  0  0  0
   -3.1222   -4.1173   -1.1389 H   0  0  0  0  0  0
   -7.3433   -3.8535   -1.9005 H   0  0  0  0  0  0
   -6.9959   -1.7679   -3.1288 H   0  0  0  0  0  0
   -5.0339   -0.6109   -4.5354 H   0  0  0  0  0  0
  1  2  1  0  0  0
  1 41  1  0  0  0
  1 42  1  0  0  0
  1 43  1  0  0  0
  2  3  1  0  0  0
  2 37  1  0  0  0
  2 44  1  0  0  0
  3  4  1  0  0  0
  3 45  1  0  0  0
  3 46  1  0  0  0
  4  5  1  0  0  0
  4 47  1  0  0  0
  4 48  1  0  0  0
  5  6  1  0  0  0
  5 49  1  0  0  0
  5 50  1  0  0  0
  6  7  1  0  0  0
  6 24  1  0  0  0
  6 51  1  0  0  0
  7  8  1  0  0  0
  7 12  1  0  0  0
  8  9  1  0  0  0
  8 52  1  0  0  0
  8 53  1  0  0  0
  9 10  1  0  0  0
  9 54  1  0  0  0
  9 55  1  0  0  0
 10 11  2  0  0  0
 10 14  1  0  0  0
 11 12  1  0  0  0
 11 56  1  0  0  0
 12 13  2  0  0  0
 14 15  2  0  0  0
 14 22  1  0  0  0
 15 16  1  0  0  0
 15 17  1  0  0  0
 17 18  2  0  0  0
 17 57  1  0  0  0
 18 19  1  0  0  0
 18 58  1  0  0  0
 19 20  1  0  0  0
 19 22  2  0  0  0
 20 21  3  0  0  0
 22 23  1  0  0  0
 24 25  1  0  0  0
 24 29  2  0  0  0
 25 26  2  0  0  0
 25 59  1  0  0  0
 26 27  1  0  0  0
 26 30  1  0  0  0
 27 28  2  0  0  0
 27 60  1  0  0  0
 28 29  1  0  0  0
 28 61  1  0  0  0
 30 31  2  0  0  0
 30 35  1  0  0  0
 31 32  1  0  0  0
 31 62  1  0  0  0
 32 33  2  0  0  0
 32 39  1  0  0  0
 33 34  1  0  0  0
 33 63  1  0  0  0
 34 35  2  0  0  0
 34 64  1  0  0  0
 35 36  1  0  0  0
 36 37  1  0  0  0
 36 65  1  0  0  0
 37 38  2  0  0  0
 39 40  3  0  0  0
M  END
> <chembl_id>
CHEMBL4107572

> <chembl_pref_name>
None

> <i_m_ct_stereo_status>
1

> <s_m_source_file>
sdf/inactives_sanitized.sdf

> <i_m_source_file_index>
222

> <i_lp_mmshare_version>
49012

> <i_f3d_flags>
0

> <s_epik_input>
bjFbY0hdW2NIXWMoW2NIXWMxMiljM2MoW2NIXVtjSF1jKFtjSF0zKUMjTilbTkhdQyg9TylbQ0BIXShbQ0gzXSlbQ0gyXVtDSDJdW0NIMl1bQ0BASF0yTjRbQ0gyXVtDSDJdQyg9W0NIXUM0PU8pYzVjKEYpW2NIXVtjSF1jKEMjTiljNUY=

> <s_epik_cmdline>
J2VwaWtfcHl0aG9uJywgJy1waHQnLCAnMC41JywgJy1waCcsICc3LjUnLCAnLW50JywgJy1tYScsICcyMDAnLCAnLWltYWUnLCAnPGluZmlsZS5tYWU+JywgJy1vbWFlJywgJzxvdXRmaWxlLm1hZT4n

> <r_lp_tautomer_probability>
1

> <r_epik_Ionization_Penalty>
  0.0001

> <r_epik_Ionization_Penalty_Charging>
  0.0000

> <r_epik_Ionization_Penalty_Neutral>
  0.0001

> <r_epik_State_Penalty>
 -0.0000

> <r_epik_Charging_Adjusted_Penalty>
0

> <i_epik_Tot_Q>
0

> <i_epik_Tot_abs_Q>
0

> <s_lp_Force_Field>
OPLS3e

> <r_lp_Energy>
94.664188

> <b_lp_Chiralities_Consistent>
1

> <s_lp_Variant>
sdf/inactives_sanitized.sdf:222-1

$$$$
sdf/inactives_sanitized.sdf:223
                    3D
 Schrodinger Suite 2020-1.
 67 71  0  0  1  0            999 V2000
    3.9467    2.2375   -3.7978 C   0  0  0  0  0  0
    3.6823    3.2502   -4.7253 C   0  0  0  0  0  0
    4.6769    4.1523   -5.0921 C   0  0  0  0  0  0
    5.9517    4.0608   -4.5310 C   0  0  0  0  0  0
    6.2233    3.0512   -3.5962 C   0  0  0  0  0  0
    5.2239    2.1521   -3.2345 C   0  0  0  0  0  0
    6.8882    5.0159   -4.9636 N   0  0  0  0  0  0
    8.2014    5.2231   -4.5511 C   0  0  0  0  0  0
    8.7108    6.2501   -5.2613 O   0  0  0  0  0  0
    8.8231    4.6001   -3.6876 O   0  0  0  0  0  0
   10.0441    6.6933   -5.0476 C   0  0  0  0  0  0
   -7.2615    2.0078    0.2419 C   0  0  0  0  0  0
   -7.5638    1.0536    1.2090 C   0  0  0  0  0  0
   -6.5473    0.2820    1.7635 C   0  0  0  0  0  0
   -5.2278    0.4710    1.3552 C   0  0  0  0  0  0
   -4.8948    1.4320    0.3864 C   0  0  0  0  0  0
   -5.9403    2.1966   -0.1845 C   0  0  0  0  0  0
   -5.7208    3.1611   -1.1928 N   0  0  0  0  0  0
   -6.1725    4.4590   -1.2571 C   0  0  0  0  0  0
   -5.8053    5.0278   -2.3770 N   0  0  0  0  0  0
   -5.1017    4.0454   -3.0669 N   0  0  0  0  0  0
   -5.0649    2.8775   -2.3281 N   0  0  0  0  0  0
   -6.9195   -0.9023    2.9628 Cl  0  0  0  0  0  0
   -3.4731    1.6323    0.0029 C   0  0  0  0  0  0
   -2.4652    0.7481    0.1737 C   0  0  0  0  0  0
   -1.1019    1.0366   -0.2096 C   0  0  0  0  0  0
   -0.2568    0.0234    0.0564 N   0  0  0  0  0  0
   -0.7477    2.0963   -0.7318 O   0  0  0  0  0  0
    1.1921    0.0145   -0.1975 C   0  0  2  0  0  0
    1.5770    0.2128   -1.6688 C   0  0  0  0  0  0
    1.8397   -1.2758    0.3589 C   0  0  0  0  0  0
    1.7528   -1.4007    1.8759 C   0  0  0  0  0  0
    2.6765   -0.7310    2.6834 C   0  0  0  0  0  0
    2.5944   -0.8384    4.0692 C   0  0  0  0  0  0
    1.5896   -1.6152    4.6427 C   0  0  0  0  0  0
    0.6659   -2.2856    3.8434 C   0  0  0  0  0  0
    0.7474   -2.1786    2.4575 C   0  0  0  0  0  0
    0.8892   -0.5061   -2.5971 N   0  0  0  0  0  0
    1.1781   -0.3654   -3.8999 N   0  0  0  0  0  0
    2.1491    0.4968   -4.3046 C   0  0  0  0  0  0
    2.8838    1.2766   -3.3911 C   0  0  0  0  0  0
    2.5784    1.1131   -2.0354 C   0  0  0  0  0  0
    2.4678    0.5510   -6.0046 Cl  0  0  0  0  0  0
    2.6989    3.3441   -5.1629 H   0  0  0  0  0  0
    4.4462    4.9242   -5.8127 H   0  0  0  0  0  0
    7.1919    2.9359   -3.1378 H   0  0  0  0  0  0
    5.4488    1.3793   -2.5135 H   0  0  0  0  0  0
    6.5529    5.6435   -5.6796 H   0  0  0  0  0  0
   10.2700    7.5229   -5.7175 H   0  0  0  0  0  0
   10.7597    5.8936   -5.2444 H   0  0  0  0  0  0
   10.1825    7.0378   -4.0217 H   0  0  0  0  0  0
   -8.0657    2.5898   -0.1857 H   0  0  0  0  0  0
   -8.5874    0.9128    1.5240 H   0  0  0  0  0  0
   -4.4612   -0.1297    1.8213 H   0  0  0  0  0  0
   -6.7484    4.8914   -0.4521 H   0  0  0  0  0  0
   -3.2424    2.5953   -0.4318 H   0  0  0  0  0  0
   -2.6468   -0.2252    0.6081 H   0  0  0  0  0  0
   -0.6164   -0.7704    0.5656 H   0  0  0  0  0  0
    1.6075    0.8526    0.3679 H   0  0  0  0  0  0
    1.3937   -2.1570   -0.1067 H   0  0  0  0  0  0
    2.8950   -1.3143    0.0817 H   0  0  0  0  0  0
    3.4542   -0.1266    2.2392 H   0  0  0  0  0  0
    3.3060   -0.3218    4.6966 H   0  0  0  0  0  0
    1.5259   -1.6980    5.7178 H   0  0  0  0  0  0
   -0.1101   -2.8850    4.2967 H   0  0  0  0  0  0
    0.0288   -2.6970    1.8391 H   0  0  0  0  0  0
    3.1042    1.6824   -1.2819 H   0  0  0  0  0  0
  1  2  2  0  0  0
  1  6  1  0  0  0
  1 41  1  0  0  0
  2  3  1  0  0  0
  2 44  1  0  0  0
  3  4  2  0  0  0
  3 45  1  0  0  0
  4  5  1  0  0  0
  4  7  1  0  0  0
  5  6  2  0  0  0
  5 46  1  0  0  0
  6 47  1  0  0  0
  7  8  1  0  0  0
  7 48  1  0  0  0
  8  9  1  0  0  0
  8 10  2  0  0  0
  9 11  1  0  0  0
 11 49  1  0  0  0
 11 50  1  0  0  0
 11 51  1  0  0  0
 12 13  2  0  0  0
 12 17  1  0  0  0
 12 52  1  0  0  0
 13 14  1  0  0  0
 13 53  1  0  0  0
 14 15  2  0  0  0
 14 23  1  0  0  0
 15 16  1  0  0  0
 15 54  1  0  0  0
 16 17  2  0  0  0
 16 24  1  0  0  0
 17 18  1  0  0  0
 18 19  1  0  0  0
 18 22  1  0  0  0
 19 20  2  0  0  0
 19 55  1  0  0  0
 20 21  1  0  0  0
 21 22  2  0  0  0
 24 25  2  0  0  0
 24 56  1  0  0  0
 25 26  1  0  0  0
 25 57  1  0  0  0
 26 27  1  0  0  0
 26 28  2  0  0  0
 27 29  1  0  0  0
 27 58  1  0  0  0
 29 30  1  0  0  0
 29 31  1  0  0  0
 29 59  1  0  0  0
 30 38  2  0  0  0
 30 42  1  0  0  0
 31 32  1  0  0  0
 31 60  1  0  0  0
 31 61  1  0  0  0
 32 33  2  0  0  0
 32 37  1  0  0  0
 33 34  1  0  0  0
 33 62  1  0  0  0
 34 35  2  0  0  0
 34 63  1  0  0  0
 35 36  1  0  0  0
 35 64  1  0  0  0
 36 37  2  0  0  0
 36 65  1  0  0  0
 37 66  1  0  0  0
 38 39  1  0  0  0
 39 40  2  0  0  0
 40 41  1  0  0  0
 40 43  1  0  0  0
 41 42  2  0  0  0
 42 67  1  0  0  0
M  END
> <chembl_id>
CHEMBL4227743

> <chembl_pref_name>
None

> <i_m_ct_stereo_status>
1

> <s_m_source_file>
sdf/inactives_sanitized.sdf

> <i_m_source_file_index>
223

> <i_lp_mmshare_version>
49012

> <i_f3d_flags>
0

> <s_epik_input>
W0NIM11PQyg9TylbTkhdYyhbY0hdW2NIXTEpW2NIXVtjSF1jMS1jKFtjSF0yKWMoQ2wpbm5jMltDQEhdKFtDSDJdYzNbY0hdW2NIXVtjSF1bY0hdW2NIXTMpW05IXUMoPU8pXFtDSF09W0NIXVxjKFtjSF00KWMoW2NIXVtjSF1jNENsKS1uNVtjSF1ubm41

> <s_epik_cmdline>
J2VwaWtfcHl0aG9uJywgJy1waHQnLCAnMC41JywgJy1waCcsICc3LjUnLCAnLW50JywgJy1tYScsICcyMDAnLCAnLWltYWUnLCAnPGluZmlsZS5tYWU+JywgJy1vbWFlJywgJzxvdXRmaWxlLm1hZT4n

> <r_lp_tautomer_probability>
1

> <r_epik_Ionization_Penalty>
  0.0000

> <r_epik_Ionization_Penalty_Charging>
  0.0000

> <r_epik_Ionization_Penalty_Neutral>
  0.0000

> <r_epik_State_Penalty>
 -0.0000

> <r_epik_Charging_Adjusted_Penalty>
0

> <i_epik_Tot_Q>
0

> <i_epik_Tot_abs_Q>
0

> <s_epik_Chemistry_Notes>
This compound has an ester and may undergo hydrolysis at high or low pH.

> <s_lp_Force_Field>
OPLS3e

> <r_lp_Energy>
58.471553

> <b_lp_Chiralities_Consistent>
1

> <s_lp_Variant>
sdf/inactives_sanitized.sdf:223-1

$$$$
sdf/inactives_sanitized.sdf:224
                    3D
 Schrodinger Suite 2020-1.
 70 74  0  0  1  0            999 V2000
   -3.2494    0.9681    0.1437 C   0  0  0  0  0  0
   -2.0358    0.2466   -0.0176 O   0  0  0  0  0  0
   -0.8425    0.8627    0.1060 C   0  0  0  0  0  0
   -0.7021    2.0604    0.3624 O   0  0  0  0  0  0
    0.1586   -0.0792   -0.1114 N   0  0  0  0  0  0
    1.5554    0.0728   -0.0790 C   0  0  0  0  0  0
    2.3075   -1.0450   -0.4422 C   0  0  0  0  0  0
    3.6993   -0.9902   -0.4483 C   0  0  0  0  0  0
    4.3769    0.1809   -0.0937 C   0  0  0  0  0  0
    3.6197    1.3046    0.3048 C   0  0  0  0  0  0
    4.1972    2.5314    0.6712 N   0  0  0  0  0  0
    4.8829    2.8288    1.7987 C   0  0  0  0  0  0
    5.2628    3.9850    1.9802 O   0  0  0  0  0  0
    5.2109    1.7637    2.8794 C   0  0  2  0  0  0
    4.4216    2.0355    4.1763 C   0  0  0  0  0  0
    6.7457    1.6952    3.1371 C   0  0  0  0  0  0
    7.2396    0.4136    3.8608 C   0  0  0  0  0  0
    8.6367   -0.0914    3.4037 C   0  0  0  0  0  0
    8.6313   -1.0650    2.1816 C   0  0  2  0  0  0
    9.9568   -1.6603    1.8646 N   0  0  0  0  0  0
   11.1914   -0.8243    1.9233 C   0  0  0  0  0  0
   12.4779   -1.6765    2.0859 C   0  0  0  0  0  0
   12.4603   -2.8141    1.0745 C   0  0  0  0  0  0
   11.2600   -3.3416    0.7511 C   0  0  0  0  0  0
    9.9795   -2.8948    1.2589 C   0  0  0  0  0  0
    8.9975   -3.6347    1.1692 O   0  0  0  0  0  0
   13.7333   -3.4408    0.6234 C   0  0  0  0  0  0
   14.8861   -3.3730    1.4216 C   0  0  0  0  0  0
   16.0593   -3.9904    0.9871 C   0  0  0  0  0  0
   16.1440   -4.6686   -0.1834 N   0  0  0  0  0  0
   15.0314   -4.7457   -0.9556 C   0  0  0  0  0  0
   15.1236   -5.6074   -2.4476 Cl  0  0  0  0  0  0
   13.8210   -4.1537   -0.5852 C   0  0  0  0  0  0
    7.9262   -0.4462    0.9710 C   0  0  0  0  0  0
    6.5473   -0.6083    0.8282 C   0  0  0  0  0  0
    5.8610    0.1789   -0.0997 C   0  0  0  0  0  0
    6.6016    1.0088   -0.9507 C   0  0  0  0  0  0
    7.9914    1.0448   -0.8146 C   0  0  0  0  0  0
    8.6573    0.3484    0.1419 N   0  0  0  0  0  0
    2.2219    1.2501    0.2937 C   0  0  0  0  0  0
   -4.0985    0.2984    0.0085 H   0  0  0  0  0  0
   -3.3298    1.7696   -0.5918 H   0  0  0  0  0  0
   -3.3167    1.4043    1.1415 H   0  0  0  0  0  0
   -0.1608   -1.0115   -0.3293 H   0  0  0  0  0  0
    1.8190   -1.9660   -0.7276 H   0  0  0  0  0  0
    4.2569   -1.8699   -0.7373 H   0  0  0  0  0  0
    3.9673    3.3088    0.0694 H   0  0  0  0  0  0
    4.8850    0.7894    2.5228 H   0  0  0  0  0  0
    3.3466    2.0611    3.9904 H   0  0  0  0  0  0
    4.6989    2.9895    4.6274 H   0  0  0  0  0  0
    4.6006    1.2558    4.9173 H   0  0  0  0  0  0
    7.2702    1.7912    2.1868 H   0  0  0  0  0  0
    7.0687    2.5723    3.7011 H   0  0  0  0  0  0
    7.2681    0.6209    4.9316 H   0  0  0  0  0  0
    6.5165   -0.3957    3.7538 H   0  0  0  0  0  0
    9.2735    0.7733    3.2169 H   0  0  0  0  0  0
    9.0916   -0.6175    4.2445 H   0  0  0  0  0  0
    7.9975   -1.8918    2.5091 H   0  0  0  0  0  0
   11.2824   -0.3885    0.9270 H   0  0  0  0  0  0
   11.1262    0.0284    2.5953 H   0  0  0  0  0  0
   13.3628   -1.0494    1.9707 H   0  0  0  0  0  0
   12.4980   -2.0895    3.0955 H   0  0  0  0  0  0
   11.2206   -4.2012    0.0983 H   0  0  0  0  0  0
   14.8824   -2.8586    2.3714 H   0  0  0  0  0  0
   16.9571   -3.9500    1.5864 H   0  0  0  0  0  0
   12.9694   -4.2407   -1.2439 H   0  0  0  0  0  0
    5.9992   -1.2354    1.5167 H   0  0  0  0  0  0
    6.1094    1.6279   -1.6866 H   0  0  0  0  0  0
    8.5902    1.6754   -1.4546 H   0  0  0  0  0  0
    1.6752    2.1314    0.5901 H   0  0  0  0  0  0
  1  2  1  0  0  0
  1 41  1  0  0  0
  1 42  1  0  0  0
  1 43  1  0  0  0
  2  3  1  0  0  0
  3  4  2  0  0  0
  3  5  1  0  0  0
  5  6  1  0  0  0
  5 44  1  0  0  0
  6  7  2  0  0  0
  6 40  1  0  0  0
  7  8  1  0  0  0
  7 45  1  0  0  0
  8  9  2  0  0  0
  8 46  1  0  0  0
  9 10  1  0  0  0
  9 36  1  0  0  0
 10 11  1  0  0  0
 10 40  2  0  0  0
 11 12  1  0  0  0
 11 47  1  0  0  0
 12 13  2  0  0  0
 12 14  1  0  0  0
 14 15  1  0  0  0
 14 16  1  0  0  0
 14 48  1  0  0  0
 15 49  1  0  0  0
 15 50  1  0  0  0
 15 51  1  0  0  0
 16 17  1  0  0  0
 16 52  1  0  0  0
 16 53  1  0  0  0
 17 18  1  0  0  0
 17 54  1  0  0  0
 17 55  1  0  0  0
 18 19  1  0  0  0
 18 56  1  0  0  0
 18 57  1  0  0  0
 19 20  1  0  0  0
 19 34  1  0  0  0
 19 58  1  0  0  0
 20 21  1  0  0  0
 20 25  1  0  0  0
 21 22  1  0  0  0
 21 59  1  0  0  0
 21 60  1  0  0  0
 22 23  1  0  0  0
 22 61  1  0  0  0
 22 62  1  0  0  0
 23 24  2  0  0  0
 23 27  1  0  0  0
 24 25  1  0  0  0
 24 63  1  0  0  0
 25 26  2  0  0  0
 27 28  2  0  0  0
 27 33  1  0  0  0
 28 29  1  0  0  0
 28 64  1  0  0  0
 29 30  2  0  0  0
 29 65  1  0  0  0
 30 31  1  0  0  0
 31 32  1  0  0  0
 31 33  2  0  0  0
 33 66  1  0  0  0
 34 35  1  0  0  0
 34 39  2  0  0  0
 35 36  2  0  0  0
 35 67  1  0  0  0
 36 37  1  0  0  0
 37 38  2  0  0  0
 37 68  1  0  0  0
 38 39  1  0  0  0
 38 69  1  0  0  0
 40 70  1  0  0  0
M  END
> <chembl_id>
CHEMBL4108602

> <chembl_pref_name>
None

> <i_m_ct_stereo_status>
1

> <s_m_source_file>
sdf/inactives_sanitized.sdf

> <i_m_source_file_index>
224

> <i_lp_mmshare_version>
49012

> <i_f3d_flags>
0

> <s_epik_input>
W0NIM11PQyg9TylbTkhdYyhbY0hdW2NIXTEpW2NIXWMoYzEyKVtOSF1DKD1PKVtDQEhdKFtDSDNdKVtDSDJdW0NIMl1bQ0gyXVtDQEBIXShjM1tjSF1jMltjSF1bY0hdbjMpTjRbQ0gyXVtDSDJdQyg9W0NIXUM0PU8pYzVbY0hdW2NIXW5jKENsKVtjSF01

> <s_epik_cmdline>
J2VwaWtfcHl0aG9uJywgJy1waHQnLCAnMC41JywgJy1waCcsICc3LjUnLCAnLW50JywgJy1tYScsICcyMDAnLCAnLWltYWUnLCAnPGluZmlsZS5tYWU+JywgJy1vbWFlJywgJzxvdXRmaWxlLm1hZT4n

> <r_lp_tautomer_probability>
1

> <r_epik_Ionization_Penalty>
  0.0001

> <r_epik_Ionization_Penalty_Charging>
  0.0000

> <r_epik_Ionization_Penalty_Neutral>
  0.0001

> <r_epik_State_Penalty>
 -0.0000

> <r_epik_Charging_Adjusted_Penalty>
0

> <i_epik_Tot_Q>
0

> <i_epik_Tot_abs_Q>
0

> <s_epik_Chemistry_Notes>
This compound has an ester and may undergo hydrolysis at high or low pH.

> <s_lp_Force_Field>
OPLS3e

> <r_lp_Energy>
94.907119

> <b_lp_Chiralities_Consistent>
1

> <s_lp_Variant>
sdf/inactives_sanitized.sdf:224-1

$$$$
sdf/inactives_sanitized.sdf:225
                    3D
 Schrodinger Suite 2020-1.
 75 79  0  0  1  0            999 V2000
  -10.9345   -4.5691   -2.5903 C   0  0  0  0  0  0
   -9.5271   -4.7512   -2.5176 O   0  0  0  0  0  0
   -8.6859   -3.7090   -2.6745 C   0  0  0  0  0  0
   -9.0474   -2.5511   -2.8955 O   0  0  0  0  0  0
   -7.3821   -4.1735   -2.5289 N   0  0  0  0  0  0
   -6.1693   -3.4713   -2.6289 C   0  0  0  0  0  0
   -5.0210   -4.1547   -2.2270 C   0  0  0  0  0  0
   -3.7728   -3.5394   -2.2908 C   0  0  0  0  0  0
   -3.6373   -2.2306   -2.7647 C   0  0  0  0  0  0
   -4.7991   -1.5314   -3.1604 C   0  0  0  0  0  0
   -4.7721   -0.2228   -3.6698 N   0  0  0  0  0  0
   -4.5473    0.9289   -2.9967 C   0  0  0  0  0  0
   -4.6233    1.9994   -3.5988 O   0  0  0  0  0  0
   -4.1941    0.9524   -1.4854 C   0  0  2  0  0  0
   -5.3432    1.5674   -0.6609 C   0  0  0  0  0  0
   -2.8463    1.6946   -1.2447 C   0  0  0  0  0  0
   -2.1773    1.4146    0.1274 C   0  0  0  0  0  0
   -0.6243    1.3953    0.1011 C   0  0  0  0  0  0
    0.0329    0.0227   -0.2572 C   0  0  2  0  0  0
    1.5151    0.0325   -0.1703 N   0  0  0  0  0  0
    2.2724    1.2222   -0.6627 C   0  0  0  0  0  0
    3.7222    0.8911   -1.1095 C   0  0  0  0  0  0
    4.3629   -0.0256   -0.0867 C   0  0  0  0  0  0
    3.5865   -0.9472    0.5145 C   0  0  0  0  0  0
    2.1571   -1.0741    0.3301 C   0  0  0  0  0  0
    1.5917   -2.1327    0.6108 O   0  0  0  0  0  0
    5.8343   -0.1115   -0.0021 C   0  0  0  0  0  0
    6.5515    0.9895    0.4742 C   0  0  0  0  0  0
    7.9416    0.9530    0.5440 C   0  0  0  0  0  0
    8.6318   -0.1829    0.1273 C   0  0  0  0  0  0
    7.9364   -1.2972   -0.3714 C   0  0  0  0  0  0
    8.5468   -2.4565   -0.8145 O   0  0  0  0  0  0
    9.9665   -2.5551   -0.7766 C   0  0  0  0  0  0
    6.5381   -1.2471   -0.4354 C   0  0  0  0  0  0
    5.8628   -2.3127   -0.9306 F   0  0  0  0  0  0
   -0.4957   -0.5435   -1.5784 C   0  0  0  0  0  0
   -1.6531   -1.3241   -1.5722 C   0  0  0  0  0  0
   -2.2895   -1.6100   -2.7827 C   0  0  0  0  0  0
   -1.6687   -1.2167   -3.9746 C   0  0  0  0  0  0
   -0.4585   -0.5228   -3.9061 C   0  0  0  0  0  0
    0.1221   -0.1662   -2.7318 N   0  0  0  0  0  0
   -6.0485   -2.1582   -3.1082 C   0  0  0  0  0  0
  -11.4390   -5.5250   -2.4496 H   0  0  0  0  0  0
  -11.2296   -4.1692   -3.5614 H   0  0  0  0  0  0
  -11.2806   -3.8856   -1.8137 H   0  0  0  0  0  0
   -7.2898   -5.1548   -2.3103 H   0  0  0  0  0  0
   -5.0871   -5.1680   -1.8566 H   0  0  0  0  0  0
   -2.9006   -4.0897   -1.9679 H   0  0  0  0  0  0
   -5.0687   -0.1311   -4.6304 H   0  0  0  0  0  0
   -4.0815   -0.0714   -1.1358 H   0  0  0  0  0  0
   -6.2765    1.0221   -0.8104 H   0  0  0  0  0  0
   -5.5250    2.6087   -0.9320 H   0  0  0  0  0  0
   -5.1213    1.5387    0.4063 H   0  0  0  0  0  0
   -2.1490    1.4359   -2.0408 H   0  0  0  0  0  0
   -2.9856    2.7708   -1.3631 H   0  0  0  0  0  0
   -2.5121    2.1813    0.8273 H   0  0  0  0  0  0
   -2.5359    0.4760    0.5516 H   0  0  0  0  0  0
   -0.2734    2.1868   -0.5614 H   0  0  0  0  0  0
   -0.2750    1.6757    1.0960 H   0  0  0  0  0  0
   -0.3254   -0.6574    0.5185 H   0  0  0  0  0  0
    1.7091    1.7936   -1.4002 H   0  0  0  0  0  0
    2.3578    1.8840    0.2003 H   0  0  0  0  0  0
    3.6738    0.3696   -2.0665 H   0  0  0  0  0  0
    4.3019    1.8016   -1.2643 H   0  0  0  0  0  0
    4.0542   -1.6786    1.1590 H   0  0  0  0  0  0
    6.0304    1.8798    0.7969 H   0  0  0  0  0  0
    8.4852    1.8073    0.9197 H   0  0  0  0  0  0
    9.7092   -0.1777    0.1944 H   0  0  0  0  0  0
   10.2698   -3.5286   -1.1613 H   0  0  0  0  0  0
   10.3465   -2.4708    0.2426 H   0  0  0  0  0  0
   10.4375   -1.7929   -1.3993 H   0  0  0  0  0  0
   -2.1241   -1.5908   -0.6368 H   0  0  0  0  0  0
   -2.1249   -1.4247   -4.9316 H   0  0  0  0  0  0
    0.0443   -0.2037   -4.8070 H   0  0  0  0  0  0
   -6.9121   -1.6064   -3.4458 H   0  0  0  0  0  0
  1  2  1  0  0  0
  1 43  1  0  0  0
  1 44  1  0  0  0
  1 45  1  0  0  0
  2  3  1  0  0  0
  3  4  2  0  0  0
  3  5  1  0  0  0
  5  6  1  0  0  0
  5 46  1  0  0  0
  6  7  2  0  0  0
  6 42  1  0  0  0
  7  8  1  0  0  0
  7 47  1  0  0  0
  8  9  2  0  0  0
  8 48  1  0  0  0
  9 10  1  0  0  0
  9 38  1  0  0  0
 10 11  1  0  0  0
 10 42  2  0  0  0
 11 12  1  0  0  0
 11 49  1  0  0  0
 12 13  2  0  0  0
 12 14  1  0  0  0
 14 15  1  0  0  0
 14 16  1  0  0  0
 14 50  1  0  0  0
 15 51  1  0  0  0
 15 52  1  0  0  0
 15 53  1  0  0  0
 16 17  1  0  0  0
 16 54  1  0  0  0
 16 55  1  0  0  0
 17 18  1  0  0  0
 17 56  1  0  0  0
 17 57  1  0  0  0
 18 19  1  0  0  0
 18 58  1  0  0  0
 18 59  1  0  0  0
 19 20  1  0  0  0
 19 36  1  0  0  0
 19 60  1  0  0  0
 20 21  1  0  0  0
 20 25  1  0  0  0
 21 22  1  0  0  0
 21 61  1  0  0  0
 21 62  1  0  0  0
 22 23  1  0  0  0
 22 63  1  0  0  0
 22 64  1  0  0  0
 23 24  2  0  0  0
 23 27  1  0  0  0
 24 25  1  0  0  0
 24 65  1  0  0  0
 25 26  2  0  0  0
 27 28  2  0  0  0
 27 34  1  0  0  0
 28 29  1  0  0  0
 28 66  1  0  0  0
 29 30  2  0  0  0
 29 67  1  0  0  0
 30 31  1  0  0  0
 30 68  1  0  0  0
 31 32  1  0  0  0
 31 34  2  0  0  0
 32 33  1  0  0  0
 33 69  1  0  0  0
 33 70  1  0  0  0
 33 71  1  0  0  0
 34 35  1  0  0  0
 36 37  1  0  0  0
 36 41  2  0  0  0
 37 38  2  0  0  0
 37 72  1  0  0  0
 38 39  1  0  0  0
 39 40  2  0  0  0
 39 73  1  0  0  0
 40 41  1  0  0  0
 40 74  1  0  0  0
 42 75  1  0  0  0
M  END
> <chembl_id>
CHEMBL4107022

> <chembl_pref_name>
None

> <i_m_ct_stereo_status>
1

> <s_m_source_file>
sdf/inactives_sanitized.sdf

> <i_m_source_file_index>
225

> <i_lp_mmshare_version>
49012

> <i_f3d_flags>
0

> <s_epik_input>
W0NIM11PQyg9TylbTkhdYyhbY0hdW2NIXTEpW2NIXWMoYzEyKVtOSF1DKD1PKVtDQEhdKFtDSDNdKVtDSDJdW0NIMl1bQ0gyXVtDQEBIXShjM1tjSF1jMltjSF1bY0hdbjMpTjRbQ0gyXVtDSDJdQyg9W0NIXUM0PU8pYzVbY0hdW2NIXVtjSF1jKGM1RilPW0NIM10=

> <s_epik_cmdline>
J2VwaWtfcHl0aG9uJywgJy1waHQnLCAnMC41JywgJy1waCcsICc3LjUnLCAnLW50JywgJy1tYScsICcyMDAnLCAnLWltYWUnLCAnPGluZmlsZS5tYWU+JywgJy1vbWFlJywgJzxvdXRmaWxlLm1hZT4n

> <r_lp_tautomer_probability>
1

> <r_epik_Ionization_Penalty>
  0.0001

> <r_epik_Ionization_Penalty_Charging>
  0.0000

> <r_epik_Ionization_Penalty_Neutral>
  0.0001

> <r_epik_State_Penalty>
 -0.0000

> <r_epik_Charging_Adjusted_Penalty>
0

> <i_epik_Tot_Q>
0

> <i_epik_Tot_abs_Q>
0

> <s_epik_Chemistry_Notes>
This compound has an ester and may undergo hydrolysis at high or low pH.

> <s_lp_Force_Field>
OPLS3e

> <r_lp_Energy>
97.401152

> <b_lp_Chiralities_Consistent>
1

> <s_lp_Variant>
sdf/inactives_sanitized.sdf:225-1

$$$$
sdf/inactives_sanitized.sdf:226
                    3D
 Schrodinger Suite 2020-1.
 70 74  0  0  1  0            999 V2000
   -1.5232   -2.0676    0.1389 C   0  0  0  0  0  0
   -0.1350   -1.7683    0.1815 O   0  0  0  0  0  0
    0.3077   -0.4892    0.0731 C   0  0  0  0  0  0
   -0.4424    0.4816   -0.0646 O   0  0  0  0  0  0
    1.8026   -0.3720    0.1443 C   0  0  0  0  0  0
    2.6349   -1.4939    0.2748 C   0  0  0  0  0  0
    4.0190   -1.3502    0.3272 C   0  0  0  0  0  0
    4.6038   -0.0852    0.2426 C   0  0  0  0  0  0
    6.0050   -0.0302    0.3144 N   0  0  0  0  0  0
    6.8776    0.2495   -0.6811 C   0  0  0  0  0  0
    8.0856    0.1812   -0.4569 O   0  0  0  0  0  0
    6.4100    0.6572   -2.1041 C   0  0  2  0  0  0
    6.7527   -0.4376   -3.1347 C   0  0  0  0  0  0
    7.0040    2.0395   -2.5068 C   0  0  0  0  0  0
    6.2745    2.7507   -3.6774 C   0  0  0  0  0  0
    6.2271    4.3029   -3.5642 C   0  0  0  0  0  0
    5.0191    4.9240   -2.7847 C   0  0  1  0  0  0
    3.7155    4.9717   -3.5156 N   0  0  0  0  0  0
    3.6042    4.4772   -4.9227 C   0  0  0  0  0  0
    2.1583    4.0509   -5.2870 C   0  0  0  0  0  0
    1.2074    5.1648   -4.8893 C   0  0  0  0  0  0
    1.4919    5.8617   -3.7717 C   0  0  0  0  0  0
    2.6805    5.6960   -2.9609 C   0  0  0  0  0  0
    2.6984    6.1743   -1.8253 O   0  0  0  0  0  0
   -0.1281    5.2886   -5.5242 C   0  0  0  0  0  0
   -0.9482    4.1628   -5.7139 C   0  0  0  0  0  0
   -0.5528    2.9358   -5.3011 F   0  0  0  0  0  0
   -2.1992    4.2901   -6.3171 C   0  0  0  0  0  0
   -2.6513    5.5373   -6.7389 C   0  0  0  0  0  0
   -1.8518    6.6643   -6.5596 C   0  0  0  0  0  0
   -2.4248    8.2054   -7.0919 Cl  0  0  0  0  0  0
   -0.5960    6.5425   -5.9566 C   0  0  0  0  0  0
    0.1750    7.6472   -5.8054 F   0  0  0  0  0  0
    4.9383    4.3183   -1.3767 C   0  0  0  0  0  0
    5.6065    4.9137   -0.3031 C   0  0  0  0  0  0
    5.6443    4.2746    0.9370 C   0  0  0  0  0  0
    5.0386    3.0277    1.1006 C   0  0  0  0  0  0
    4.3496    2.4319    0.0389 C   0  0  0  0  0  0
    4.2525    3.1175   -1.1726 C   0  0  0  0  0  0
    3.7880    1.0617    0.1395 C   0  0  0  0  0  0
    2.3991    0.8954    0.0771 C   0  0  0  0  0  0
   -1.6730   -3.1420    0.2448 H   0  0  0  0  0  0
   -1.9625   -1.7550   -0.8095 H   0  0  0  0  0  0
   -2.0566   -1.5693    0.9497 H   0  0  0  0  0  0
    2.2260   -2.4924    0.3340 H   0  0  0  0  0  0
    4.6355   -2.2328    0.4246 H   0  0  0  0  0  0
    6.4030   -0.3467    1.1864 H   0  0  0  0  0  0
    5.3259    0.7447   -2.1032 H   0  0  0  0  0  0
    6.3125   -1.3970   -2.8584 H   0  0  0  0  0  0
    7.8298   -0.5849   -3.2270 H   0  0  0  0  0  0
    6.3693   -0.1812   -4.1228 H   0  0  0  0  0  0
    7.0009    2.6952   -1.6363 H   0  0  0  0  0  0
    8.0628    1.9367   -2.7514 H   0  0  0  0  0  0
    6.7765    2.4760   -4.6060 H   0  0  0  0  0  0
    5.2612    2.3635   -3.7827 H   0  0  0  0  0  0
    7.1539    4.6455   -3.1008 H   0  0  0  0  0  0
    6.2686    4.7414   -4.5619 H   0  0  0  0  0  0
    5.2939    5.9731   -2.6561 H   0  0  0  0  0  0
    3.8007    5.3515   -5.5459 H   0  0  0  0  0  0
    4.3637    3.7548   -5.2116 H   0  0  0  0  0  0
    2.0744    3.8162   -6.3486 H   0  0  0  0  0  0
    1.9223    3.1445   -4.7279 H   0  0  0  0  0  0
    0.7715    6.5850   -3.4150 H   0  0  0  0  0  0
   -2.8231    3.4190   -6.4547 H   0  0  0  0  0  0
   -3.6222    5.6268   -7.2041 H   0  0  0  0  0  0
    6.1263    5.8510   -0.4371 H   0  0  0  0  0  0
    6.1762    4.7277    1.7604 H   0  0  0  0  0  0
    5.1191    2.5169    2.0492 H   0  0  0  0  0  0
    3.7341    2.6544   -2.0001 H   0  0  0  0  0  0
    1.7816    1.7781   -0.0227 H   0  0  0  0  0  0
  1  2  1  0  0  0
  1 42  1  0  0  0
  1 43  1  0  0  0
  1 44  1  0  0  0
  2  3  1  0  0  0
  3  4  2  0  0  0
  3  5  1  0  0  0
  5  6  2  0  0  0
  5 41  1  0  0  0
  6  7  1  0  0  0
  6 45  1  0  0  0
  7  8  2  0  0  0
  7 46  1  0  0  0
  8  9  1  0  0  0
  8 40  1  0  0  0
  9 10  1  0  0  0
  9 47  1  0  0  0
 10 11  2  0  0  0
 10 12  1  0  0  0
 12 13  1  0  0  0
 12 14  1  0  0  0
 12 48  1  0  0  0
 13 49  1  0  0  0
 13 50  1  0  0  0
 13 51  1  0  0  0
 14 15  1  0  0  0
 14 52  1  0  0  0
 14 53  1  0  0  0
 15 16  1  0  0  0
 15 54  1  0  0  0
 15 55  1  0  0  0
 16 17  1  0  0  0
 16 56  1  0  0  0
 16 57  1  0  0  0
 17 18  1  0  0  0
 17 34  1  0  0  0
 17 58  1  0  0  0
 18 19  1  0  0  0
 18 23  1  0  0  0
 19 20  1  0  0  0
 19 59  1  0  0  0
 19 60  1  0  0  0
 20 21  1  0  0  0
 20 61  1  0  0  0
 20 62  1  0  0  0
 21 22  2  0  0  0
 21 25  1  0  0  0
 22 23  1  0  0  0
 22 63  1  0  0  0
 23 24  2  0  0  0
 25 26  2  0  0  0
 25 32  1  0  0  0
 26 27  1  0  0  0
 26 28  1  0  0  0
 28 29  2  0  0  0
 28 64  1  0  0  0
 29 30  1  0  0  0
 29 65  1  0  0  0
 30 31  1  0  0  0
 30 32  2  0  0  0
 32 33  1  0  0  0
 34 35  1  0  0  0
 34 39  2  0  0  0
 35 36  2  0  0  0
 35 66  1  0  0  0
 36 37  1  0  0  0
 36 67  1  0  0  0
 37 38  2  0  0  0
 37 68  1  0  0  0
 38 39  1  0  0  0
 38 40  1  0  0  0
 39 69  1  0  0  0
 40 41  2  0  0  0
 41 70  1  0  0  0
M  END
> <chembl_id>
CHEMBL4106857

> <chembl_pref_name>
None

> <i_m_ct_stereo_status>
1

> <s_m_source_file>
sdf/inactives_sanitized.sdf

> <i_m_source_file_index>
226

> <i_lp_mmshare_version>
49012

> <i_f3d_flags>
0

> <s_epik_input>
W0NIM11PQyg9TyljKFtjSF1bY0hdMSlbY0hdYyhjMTIpYzNbY0hdW2NIXVtjSF1jKFtjSF0zKVtDQEBIXShbQ0gyXVtDSDJdW0NIMl1bQ0BASF0oW0NIM10pQyg9TylbTkhdMilONFtDSDJdW0NIMl1DKD1bQ0hdQzQ9TyljNWMoRilbY0hdW2NIXWMoQ2wpYzVG

> <s_epik_cmdline>
J2VwaWtfcHl0aG9uJywgJy1waHQnLCAnMC41JywgJy1waCcsICc3LjUnLCAnLW50JywgJy1tYScsICcyMDAnLCAnLWltYWUnLCAnPGluZmlsZS5tYWU+JywgJy1vbWFlJywgJzxvdXRmaWxlLm1hZT4n

> <r_lp_tautomer_probability>
1

> <r_epik_Ionization_Penalty>
  0.0000

> <r_epik_Ionization_Penalty_Charging>
  0.0000

> <r_epik_Ionization_Penalty_Neutral>
  0.0000

> <r_epik_State_Penalty>
 -0.0000

> <r_epik_Charging_Adjusted_Penalty>
0

> <i_epik_Tot_Q>
0

> <i_epik_Tot_abs_Q>
0

> <s_epik_Chemistry_Notes>
This compound has an ester and may undergo hydrolysis at high or low pH.

> <s_lp_Force_Field>
OPLS3e

> <r_lp_Energy>
93.052234

> <b_lp_Chiralities_Consistent>
1

> <s_lp_Variant>
sdf/inactives_sanitized.sdf:226-1

$$$$
sdf/inactives_sanitized.sdf:227
                    3D
 Schrodinger Suite 2020-1.
 77 81  0  0  1  0            999 V2000
  -10.9168   -4.6240   -2.6491 C   0  0  0  0  0  0
   -9.5051   -4.7843   -2.6130 O   0  0  0  0  0  0
   -8.6848   -3.7182   -2.7081 C   0  0  0  0  0  0
   -9.0695   -2.5531   -2.8279 O   0  0  0  0  0  0
   -7.3706   -4.1694   -2.6326 N   0  0  0  0  0  0
   -6.1723   -3.4404   -2.7151 C   0  0  0  0  0  0
   -5.0043   -4.1240   -2.3754 C   0  0  0  0  0  0
   -3.7684   -3.4838   -2.4315 C   0  0  0  0  0  0
   -3.6647   -2.1493   -2.8376 C   0  0  0  0  0  0
   -4.8465   -1.4505   -3.1697 C   0  0  0  0  0  0
   -4.8526   -0.1170   -3.6109 N   0  0  0  0  0  0
   -4.6327    1.0026   -2.8842 C   0  0  0  0  0  0
   -4.7459    2.1013   -3.4266 O   0  0  0  0  0  0
   -4.2401    0.9543   -1.3835 C   0  0  2  0  0  0
   -5.3774    1.5040   -0.4986 C   0  0  0  0  0  0
   -2.8986    1.7069   -1.1396 C   0  0  0  0  0  0
   -2.1909    1.3716    0.2002 C   0  0  0  0  0  0
   -0.6391    1.3795    0.1337 C   0  0  0  0  0  0
    0.0310    0.0374   -0.3061 C   0  0  2  0  0  0
    1.5144    0.0699   -0.2511 N   0  0  0  0  0  0
    2.2409    1.2973   -0.6954 C   0  0  0  0  0  0
    3.6895    1.0182   -1.1802 C   0  0  0  0  0  0
    4.3660    0.0634   -0.2159 C   0  0  0  0  0  0
    3.6149   -0.9051    0.3434 C   0  0  0  0  0  0
    2.1853   -1.0491    0.1779 C   0  0  0  0  0  0
    1.6453   -2.1318    0.4127 O   0  0  0  0  0  0
    5.8447   -0.0100   -0.1806 C   0  0  0  0  0  0
    6.5219    1.0928    0.3510 C   0  0  0  0  0  0
    7.9093    1.1036    0.4450 C   0  0  0  0  0  0
    8.6416    0.0075    0.0043 C   0  0  0  0  0  0
    7.9959   -1.1016   -0.5481 C   0  0  0  0  0  0
    8.8491   -2.2787   -1.0049 C   0  0  0  0  0  0
    6.5895   -1.1156   -0.6542 C   0  0  0  0  0  0
    5.8871   -2.3012   -1.3219 C   0  0  0  0  0  0
   -0.5198   -0.4740   -1.6408 C   0  0  0  0  0  0
   -1.6680   -1.2683   -1.6460 C   0  0  0  0  0  0
   -2.3267   -1.5077   -2.8545 C   0  0  0  0  0  0
   -1.7354   -1.0540   -4.0399 C   0  0  0  0  0  0
   -0.5314   -0.3498   -3.9653 C   0  0  0  0  0  0
    0.0699   -0.0391   -2.7885 N   0  0  0  0  0  0
   -6.0840   -2.1011   -3.1237 C   0  0  0  0  0  0
  -11.4021   -5.5955   -2.5523 H   0  0  0  0  0  0
  -11.2370   -4.1769   -3.5915 H   0  0  0  0  0  0
  -11.2609   -3.9905   -1.8301 H   0  0  0  0  0  0
   -7.2567   -5.1623   -2.4914 H   0  0  0  0  0  0
   -5.0452   -5.1574   -2.0610 H   0  0  0  0  0  0
   -2.8801   -4.0354   -2.1581 H   0  0  0  0  0  0
   -5.1730    0.0187   -4.5587 H   0  0  0  0  0  0
   -4.1004   -0.0837   -1.0905 H   0  0  0  0  0  0
   -6.3037    0.9475   -0.6495 H   0  0  0  0  0  0
   -5.5866    2.5533   -0.7127 H   0  0  0  0  0  0
   -5.1260    1.4275    0.5597 H   0  0  0  0  0  0
   -2.2174    1.4983   -1.9640 H   0  0  0  0  0  0
   -3.0573    2.7850   -1.2018 H   0  0  0  0  0  0
   -2.5193    2.0981    0.9448 H   0  0  0  0  0  0
   -2.5238    0.4078    0.5869 H   0  0  0  0  0  0
   -0.3180    2.2072   -0.4988 H   0  0  0  0  0  0
   -0.2686    1.6178    1.1319 H   0  0  0  0  0  0
   -0.2979   -0.6847    0.4441 H   0  0  0  0  0  0
    1.6547    1.8939   -1.3940 H   0  0  0  0  0  0
    2.3282    1.9169    0.1982 H   0  0  0  0  0  0
    3.6365    0.5453   -2.1619 H   0  0  0  0  0  0
    4.2495    1.9464   -1.2980 H   0  0  0  0  0  0
    4.1072   -1.6627    0.9372 H   0  0  0  0  0  0
    5.9690    1.9498    0.7087 H   0  0  0  0  0  0
    8.4162    1.9597    0.8653 H   0  0  0  0  0  0
    9.7184    0.0267    0.0899 H   0  0  0  0  0  0
    8.8695   -2.3371   -2.0936 H   0  0  0  0  0  0
    8.4393   -3.2152   -0.6252 H   0  0  0  0  0  0
    9.8741   -2.2103   -0.6377 H   0  0  0  0  0  0
    5.6324   -3.0628   -0.5843 H   0  0  0  0  0  0
    6.5026   -2.7579   -2.0966 H   0  0  0  0  0  0
    4.9769   -1.9920   -1.8364 H   0  0  0  0  0  0
   -2.1152   -1.5839   -0.7142 H   0  0  0  0  0  0
   -2.2089   -1.2261   -4.9956 H   0  0  0  0  0  0
   -0.0505    0.0139   -4.8613 H   0  0  0  0  0  0
   -6.9645   -1.5483   -3.4127 H   0  0  0  0  0  0
  1  2  1  0  0  0
  1 42  1  0  0  0
  1 43  1  0  0  0
  1 44  1  0  0  0
  2  3  1  0  0  0
  3  4  2  0  0  0
  3  5  1  0  0  0
  5  6  1  0  0  0
  5 45  1  0  0  0
  6  7  2  0  0  0
  6 41  1  0  0  0
  7  8  1  0  0  0
  7 46  1  0  0  0
  8  9  2  0  0  0
  8 47  1  0  0  0
  9 10  1  0  0  0
  9 37  1  0  0  0
 10 11  1  0  0  0
 10 41  2  0  0  0
 11 12  1  0  0  0
 11 48  1  0  0  0
 12 13  2  0  0  0
 12 14  1  0  0  0
 14 15  1  0  0  0
 14 16  1  0  0  0
 14 49  1  0  0  0
 15 50  1  0  0  0
 15 51  1  0  0  0
 15 52  1  0  0  0
 16 17  1  0  0  0
 16 53  1  0  0  0
 16 54  1  0  0  0
 17 18  1  0  0  0
 17 55  1  0  0  0
 17 56  1  0  0  0
 18 19  1  0  0  0
 18 57  1  0  0  0
 18 58  1  0  0  0
 19 20  1  0  0  0
 19 35  1  0  0  0
 19 59  1  0  0  0
 20 21  1  0  0  0
 20 25  1  0  0  0
 21 22  1  0  0  0
 21 60  1  0  0  0
 21 61  1  0  0  0
 22 23  1  0  0  0
 22 62  1  0  0  0
 22 63  1  0  0  0
 23 24  2  0  0  0
 23 27  1  0  0  0
 24 25  1  0  0  0
 24 64  1  0  0  0
 25 26  2  0  0  0
 27 28  2  0  0  0
 27 33  1  0  0  0
 28 29  1  0  0  0
 28 65  1  0  0  0
 29 30  2  0  0  0
 29 66  1  0  0  0
 30 31  1  0  0  0
 30 67  1  0  0  0
 31 32  1  0  0  0
 31 33  2  0  0  0
 32 68  1  0  0  0
 32 69  1  0  0  0
 32 70  1  0  0  0
 33 34  1  0  0  0
 34 71  1  0  0  0
 34 72  1  0  0  0
 34 73  1  0  0  0
 35 36  1  0  0  0
 35 40  2  0  0  0
 36 37  2  0  0  0
 36 74  1  0  0  0
 37 38  1  0  0  0
 38 39  2  0  0  0
 38 75  1  0  0  0
 39 40  1  0  0  0
 39 76  1  0  0  0
 41 77  1  0  0  0
M  END
> <chembl_id>
CHEMBL4108004

> <chembl_pref_name>
None

> <i_m_ct_stereo_status>
1

> <s_m_source_file>
sdf/inactives_sanitized.sdf

> <i_m_source_file_index>
227

> <i_lp_mmshare_version>
49012

> <i_f3d_flags>
0

> <s_epik_input>
W0NIM11PQyg9TylbTkhdYyhbY0hdW2NIXTEpW2NIXWMoYzEyKVtOSF1DKD1PKVtDQEhdKFtDSDNdKVtDSDJdW0NIMl1bQ0gyXVtDQEBIXShjM1tjSF1jMltjSF1bY0hdbjMpTjRbQ0gyXVtDSDJdQyg9W0NIXUM0PU8pYzVbY0hdW2NIXVtjSF1jKFtDSDNdKWM1W0NIM10=

> <s_epik_cmdline>
J2VwaWtfcHl0aG9uJywgJy1waHQnLCAnMC41JywgJy1waCcsICc3LjUnLCAnLW50JywgJy1tYScsICcyMDAnLCAnLWltYWUnLCAnPGluZmlsZS5tYWU+JywgJy1vbWFlJywgJzxvdXRmaWxlLm1hZT4n

> <r_lp_tautomer_probability>
1

> <r_epik_Ionization_Penalty>
  0.0001

> <r_epik_Ionization_Penalty_Charging>
  0.0000

> <r_epik_Ionization_Penalty_Neutral>
  0.0001

> <r_epik_State_Penalty>
 -0.0000

> <r_epik_Charging_Adjusted_Penalty>
0

> <i_epik_Tot_Q>
0

> <i_epik_Tot_abs_Q>
0

> <s_epik_Chemistry_Notes>
This compound has an ester and may undergo hydrolysis at high or low pH.

> <s_lp_Force_Field>
OPLS3e

> <r_lp_Energy>
93.439414

> <b_lp_Chiralities_Consistent>
1

> <s_lp_Variant>
sdf/inactives_sanitized.sdf:227-1

$$$$
sdf/inactives_sanitized.sdf:228
                    3D
 Schrodinger Suite 2020-1.
 67 71  0  0  1  0            999 V2000
   -4.5338   -0.7101    0.3299 C   0  0  0  0  0  0
   -5.1746    0.3150    1.2963 C   0  0  2  0  0  0
   -4.2240    0.5440    2.5016 C   0  0  0  0  0  0
   -2.8229    1.0047    2.0416 C   0  0  0  0  0  0
   -2.2194   -0.0720    1.0995 C   0  0  1  0  0  0
   -3.1357   -0.2541   -0.1407 C   0  0  0  0  0  0
   -6.5960   -0.1338    1.7039 C   0  0  0  0  0  0
   -7.2506    0.8899    2.6385 N   0  3  0  0  0  0
   -0.8351    0.4134    0.6202 C   0  0  0  0  0  0
    0.2124   -0.3691    0.9393 N   0  0  0  0  0  0
   -0.7257    1.4642   -0.0155 O   0  0  0  0  0  0
    1.6255   -0.1185    0.6120 C   0  0  2  0  0  0
    2.3388   -1.3535    0.0326 C   0  0  0  0  0  0
    2.3803    0.4829    1.8294 C   0  0  0  0  0  0
    1.8617    1.8500    2.2621 C   0  0  0  0  0  0
    2.2262    2.9915    1.5428 C   0  0  0  0  0  0
    1.7367    4.2382    1.9234 C   0  0  0  0  0  0
    0.8858    4.3393    3.0221 C   0  0  0  0  0  0
    0.5200    3.2055    3.7447 C   0  0  0  0  0  0
    1.0097    1.9588    3.3651 C   0  0  0  0  0  0
    3.6150   -1.1449   -0.3897 N   0  0  0  0  0  0
    4.2951   -2.1892   -0.9212 C   0  0  0  0  0  0
    3.7421   -3.4619   -1.0584 C   0  0  0  0  0  0
    2.4238   -3.6933   -0.6355 C   0  0  0  0  0  0
    1.7224   -2.6104   -0.0809 C   0  0  0  0  0  0
    1.7857   -5.0400   -0.7719 C   0  0  0  0  0  0
    0.4047   -5.1527   -0.9981 C   0  0  0  0  0  0
    2.0113   -7.4894   -0.7911 C   0  0  0  0  0  0
    2.5550   -6.2093   -0.6752 C   0  0  0  0  0  0
    0.6361   -7.5704   -1.0148 C   0  0  0  0  0  0
   -0.1801   -6.4219   -1.1211 C   0  0  0  0  0  0
   -1.4965   -6.9328   -1.3472 C   0  0  0  0  0  0
   -1.4895   -8.2415   -1.3734 N   0  0  0  0  0  0
   -0.2201   -8.6401   -1.1758 N   0  0  0  0  0  0
   -2.6428   -6.2030   -1.5184 O   0  0  0  0  0  0
   -4.4727   -1.6892    0.8088 H   0  0  0  0  0  0
   -5.1849   -0.8626   -0.5324 H   0  0  0  0  0  0
   -5.2508    1.2585    0.7514 H   0  0  0  0  0  0
   -4.6474    1.2769    3.1891 H   0  0  0  0  0  0
   -4.1449   -0.3725    3.0890 H   0  0  0  0  0  0
   -2.9675    1.9604    1.5327 H   0  0  0  0  0  0
   -2.2223    1.1234    2.9454 H   0  0  0  0  0  0
   -2.0742   -1.0193    1.6247 H   0  0  0  0  0  0
   -2.7603   -1.0381   -0.8011 H   0  0  0  0  0  0
   -3.2866    0.6828   -0.6820 H   0  0  0  0  0  0
   -7.2800   -0.1954    0.8562 H   0  0  0  0  0  0
   -6.6099   -1.0708    2.2627 H   0  0  0  0  0  0
   -8.1828    0.5891    2.8853 H   0  0  0  0  0  0
   -7.3087    1.7903    2.1841 H   0  0  0  0  0  0
    0.0387   -1.1766    1.5194 H   0  0  0  0  0  0
    1.6643    0.6128   -0.1999 H   0  0  0  0  0  0
    2.3416   -0.2081    2.6736 H   0  0  0  0  0  0
    3.4427    0.5962    1.6082 H   0  0  0  0  0  0
    2.8808    2.9124    0.6869 H   0  0  0  0  0  0
    2.0134    5.1221    1.3679 H   0  0  0  0  0  0
    0.5059    5.3066    3.3162 H   0  0  0  0  0  0
   -0.1410    3.2929    4.5943 H   0  0  0  0  0  0
    0.7196    1.0796    3.9221 H   0  0  0  0  0  0
    5.3055   -1.9897   -1.2467 H   0  0  0  0  0  0
    4.3334   -4.2484   -1.5036 H   0  0  0  0  0  0
    0.7109   -2.7533    0.2676 H   0  0  0  0  0  0
   -0.2123   -4.2714   -1.0912 H   0  0  0  0  0  0
    2.6316   -8.3696   -0.7075 H   0  0  0  0  0  0
    3.6165   -6.1364   -0.4891 H   0  0  0  0  0  0
    0.0083   -9.6238   -1.1601 H   0  0  0  0  0  0
   -2.4594   -5.2613   -1.4963 H   0  0  0  0  0  0
   -6.7058    0.9869    3.4835 H   0  0  0  0  0  0
  1  2  1  0  0  0
  1  6  1  0  0  0
  1 36  1  0  0  0
  1 37  1  0  0  0
  2  3  1  0  0  0
  2  7  1  0  0  0
  2 38  1  0  0  0
  3  4  1  0  0  0
  3 39  1  0  0  0
  3 40  1  0  0  0
  4  5  1  0  0  0
  4 41  1  0  0  0
  4 42  1  0  0  0
  5  6  1  0  0  0
  5  9  1  0  0  0
  5 43  1  0  0  0
  6 44  1  0  0  0
  6 45  1  0  0  0
  7  8  1  0  0  0
  7 46  1  0  0  0
  7 47  1  0  0  0
  8 48  1  0  0  0
  8 49  1  0  0  0
  8 67  1  0  0  0
  9 10  1  0  0  0
  9 11  2  0  0  0
 10 12  1  0  0  0
 10 50  1  0  0  0
 12 13  1  0  0  0
 12 14  1  0  0  0
 12 51  1  0  0  0
 13 21  2  0  0  0
 13 25  1  0  0  0
 14 15  1  0  0  0
 14 52  1  0  0  0
 14 53  1  0  0  0
 15 16  2  0  0  0
 15 20  1  0  0  0
 16 17  1  0  0  0
 16 54  1  0  0  0
 17 18  2  0  0  0
 17 55  1  0  0  0
 18 19  1  0  0  0
 18 56  1  0  0  0
 19 20  2  0  0  0
 19 57  1  0  0  0
 20 58  1  0  0  0
 21 22  1  0  0  0
 22 23  2  0  0  0
 22 59  1  0  0  0
 23 24  1  0  0  0
 23 60  1  0  0  0
 24 25  2  0  0  0
 24 26  1  0  0  0
 25 61  1  0  0  0
 26 27  2  0  0  0
 26 29  1  0  0  0
 27 31  1  0  0  0
 27 62  1  0  0  0
 28 30  1  0  0  0
 28 29  2  0  0  0
 28 63  1  0  0  0
 29 64  1  0  0  0
 30 31  2  0  0  0
 30 34  1  0  0  0
 31 32  1  0  0  0
 32 33  2  0  0  0
 32 35  1  0  0  0
 33 34  1  0  0  0
 34 65  1  0  0  0
 35 66  1  0  0  0
M  CHG  1   8   1
M  END
> <chembl_id>
CHEMBL3780324

> <chembl_pref_name>
None

> <i_m_ct_stereo_status>
1

> <s_m_source_file>
sdf/inactives_sanitized.sdf

> <i_m_source_file_index>
228

> <i_lp_mmshare_version>
49012

> <i_f3d_flags>
0

> <s_epik_input>
W05IMl1bQ0gyXVtDQEBIXTFbQ0gyXVtDSDJdW0NASF0oW0NIMl1bQ0gyXTEpQyg9TylbTkhdW0NAQEhdKFtDSDJdYzJbY0hdW2NIXVtjSF1bY0hdW2NIXTIpYzNuW2NIXVtjSF1jKFtjSF0zKS1jKFtjSF1bY0hdNClbY0hdYyhjNDUpYyhbT0hdKW5bbkhdNQ==

> <s_epik_cmdline>
J2VwaWtfcHl0aG9uJywgJy1waHQnLCAnMC41JywgJy1waCcsICc3LjUnLCAnLW50JywgJy1tYScsICcyMDAnLCAnLWltYWUnLCAnPGluZmlsZS5tYWU+JywgJy1vbWFlJywgJzxvdXRmaWxlLm1hZT4n

> <r_epik_Ionization_Penalty>
  0.5904

> <r_epik_Ionization_Penalty_Charging>
  0.0011

> <r_epik_Ionization_Penalty_Neutral>
  0.5893

> <r_epik_State_Penalty>
  0.3958

> <r_epik_Charging_Adjusted_Penalty>
0.396902108642196

> <i_epik_Tot_Q>
1

> <i_epik_Tot_abs_Q>
1

> <s_lp_Force_Field>
OPLS3e

> <r_lp_Energy>
57.839716

> <b_lp_Chiralities_Consistent>
1

> <s_lp_Variant>
sdf/inactives_sanitized.sdf:228-1

$$$$
sdf/inactives_sanitized.sdf:229
                    3D
 Schrodinger Suite 2020-1.
 42 44  0  0  1  0            999 V2000
   -1.7870    1.7890   -0.6466 N   0  0  0  0  0  0
   -0.7455    3.5922    0.0479 C   0  0  0  0  0  0
   -0.5768    4.9497    0.3464 C   0  0  0  0  0  0
   -3.0513    4.0007   -0.7149 C   0  0  0  0  0  0
   -2.8627    5.3554   -0.4090 C   0  0  0  0  0  0
   -1.6427    5.8267    0.1143 C   0  0  0  0  0  0
   -1.9780    3.1407   -0.4776 C   0  0  0  0  0  0
   -0.5071    1.4976   -0.2347 C   0  0  0  0  0  0
    0.1421    2.5574    0.1881 N   0  0  0  0  0  0
    0.0408    0.0805   -0.2889 C   0  0  0  0  0  0
    1.4904   -0.0620    0.2271 C   0  0  0  0  0  0
    1.9769   -1.4408    0.2278 N   0  0  0  0  0  0
    2.3743   -2.1237   -0.8627 C   0  0  0  0  0  0
    2.8340   -3.5392   -0.6147 C   0  0  0  0  0  0
    2.3801   -1.6478   -1.9994 O   0  0  0  0  0  0
    2.1393   -4.3653    0.2829 C   0  0  0  0  0  0
    2.5640   -5.6713    0.5255 C   0  0  0  0  0  0
    3.6947   -6.1717   -0.1230 C   0  0  0  0  0  0
    4.3977   -5.3570   -1.0134 C   0  0  0  0  0  0
    3.9751   -4.0493   -1.2589 C   0  0  0  0  0  0
   -1.4467    7.3021    0.4401 C   0  0  0  0  0  0
   -4.0224    6.3118   -0.6569 C   0  0  0  0  0  0
    4.6929   -3.2894   -2.1210 F   0  0  0  0  0  0
    4.1392   -7.5346    0.1286 C   0  0  0  0  0  0
    4.4927   -8.6182    0.3287 N   0  0  0  0  0  0
   -2.4301    1.0964   -1.0020 H   0  0  0  0  0  0
    0.3597    5.3095    0.7474 H   0  0  0  0  0  0
   -3.9859    3.6373   -1.1170 H   0  0  0  0  0  0
   -0.6067   -0.5783    0.2913 H   0  0  0  0  0  0
   -0.0077   -0.2793   -1.3176 H   0  0  0  0  0  0
    2.1660    0.5738   -0.3492 H   0  0  0  0  0  0
    1.5480    0.3032    1.2534 H   0  0  0  0  0  0
    2.0283   -1.8964    1.1273 H   0  0  0  0  0  0
    1.2580   -4.0052    0.7950 H   0  0  0  0  0  0
    2.0064   -6.2864    1.2186 H   0  0  0  0  0  0
    5.2776   -5.7283   -1.5207 H   0  0  0  0  0  0
   -1.6149    7.9124   -0.4478 H   0  0  0  0  0  0
   -0.4425    7.5172    0.8077 H   0  0  0  0  0  0
   -2.1616    7.6219    1.1988 H   0  0  0  0  0  0
   -4.2975    6.8215    0.2670 H   0  0  0  0  0  0
   -4.9102    5.8019   -1.0338 H   0  0  0  0  0  0
   -3.7367    7.0753   -1.3812 H   0  0  0  0  0  0
  1  7  1  0  0  0
  1  8  1  0  0  0
  1 26  1  0  0  0
  2  3  2  0  0  0
  2  7  1  0  0  0
  2  9  1  0  0  0
  3  6  1  0  0  0
  3 27  1  0  0  0
  4  7  2  0  0  0
  4  5  1  0  0  0
  4 28  1  0  0  0
  5  6  2  0  0  0
  5 22  1  0  0  0
  6 21  1  0  0  0
  8  9  2  0  0  0
  8 10  1  0  0  0
 10 11  1  0  0  0
 10 29  1  0  0  0
 10 30  1  0  0  0
 11 12  1  0  0  0
 11 31  1  0  0  0
 11 32  1  0  0  0
 12 13  1  0  0  0
 12 33  1  0  0  0
 13 14  1  0  0  0
 13 15  2  0  0  0
 14 16  2  0  0  0
 14 20  1  0  0  0
 16 17  1  0  0  0
 16 34  1  0  0  0
 17 18  2  0  0  0
 17 35  1  0  0  0
 18 19  1  0  0  0
 18 24  1  0  0  0
 19 20  2  0  0  0
 19 36  1  0  0  0
 20 23  1  0  0  0
 21 37  1  0  0  0
 21 38  1  0  0  0
 21 39  1  0  0  0
 22 40  1  0  0  0
 22 41  1  0  0  0
 22 42  1  0  0  0
 24 25  3  0  0  0
M  END
> <chembl_id>
CHEMBL3423036

> <chembl_pref_name>
None

> <s_m_source_file>
sdf/inactives_sanitized.sdf

> <i_m_source_file_index>
229

> <i_lp_mmshare_version>
49012

> <i_m_ct_stereo_status>
1

> <i_f3d_flags>
0

> <s_epik_input>
W2NIXTFjKFtDSDNdKWMoW0NIM10pW2NIXWMoYzEyKVtuSF1jKG4yKVtDSDJdW0NIMl1bTkhdQyg9TyljM1tjSF1bY0hdYyhDI04pW2NIXWMzRg==

> <s_epik_cmdline>
J2VwaWtfcHl0aG9uJywgJy1waHQnLCAnMC41JywgJy1waCcsICc3LjUnLCAnLW50JywgJy1tYScsICcyMDAnLCAnLWltYWUnLCAnPGluZmlsZS5tYWU+JywgJy1vbWFlJywgJzxvdXRmaWxlLm1hZT4n

> <r_epik_Ionization_Penalty>
  0.0235

> <r_epik_Ionization_Penalty_Charging>
  0.0000

> <r_epik_Ionization_Penalty_Neutral>
  0.0235

> <r_epik_State_Penalty>
  0.0190

> <r_epik_Charging_Adjusted_Penalty>
0.0189995681741242

> <i_epik_Tot_Q>
0

> <i_epik_Tot_abs_Q>
0

> <s_lp_Force_Field>
OPLS3e

> <r_lp_Energy>
17.823459

> <b_lp_Chiralities_Consistent>
1

> <s_lp_Variant>
sdf/inactives_sanitized.sdf:229-1

$$$$
sdf/inactives_sanitized.sdf:230
                    3D
 Schrodinger Suite 2020-1.
 48 51  0  0  1  0            999 V2000
   -1.2804    1.9657   -1.0552 N   0  0  0  0  0  0
   -0.9825    3.5195    0.4680 C   0  0  0  0  0  0
   -1.0994    4.7822    1.0616 C   0  0  0  0  0  0
   -2.3189    4.2564   -1.4658 C   0  0  0  0  0  0
   -2.4234    5.5135   -0.8550 C   0  0  0  0  0  0
   -1.8223    5.7761    0.3916 C   0  0  0  0  0  0
   -1.5939    3.2775   -0.7845 C   0  0  0  0  0  0
   -0.5309    1.4985   -0.0005 C   0  0  0  0  0  0
   -0.3313    2.4037    0.9263 N   0  0  0  0  0  0
    0.0068    0.0833    0.0552 C   0  0  0  0  0  0
    1.5341    0.0306   -0.1506 C   0  0  0  0  0  0
    2.0903   -1.3168   -0.0414 N   0  0  0  0  0  0
    1.9952   -2.2754   -0.9814 C   0  0  0  0  0  0
    2.6073   -3.6095   -0.6276 C   0  0  0  0  0  0
    1.4027   -2.1223   -2.0514 O   0  0  0  0  0  0
    1.8604   -4.7688   -0.8800 C   0  0  0  0  0  0
    2.3711   -6.0318   -0.5884 C   0  0  0  0  0  0
    3.6537   -6.1641   -0.0487 C   0  0  0  0  0  0
    4.4185   -5.0159    0.1838 C   0  0  0  0  0  0
    3.9140   -3.7461   -0.1075 C   0  0  0  0  0  0
   -1.9427    7.1463    1.0467 C   0  0  0  0  0  0
   -3.2086    6.5980   -1.5825 C   0  0  0  0  0  0
    4.9715   -2.3978    0.1639 Cl  0  0  0  0  0  0
    4.1749   -7.4419    0.2509 N   0  0  0  0  0  0
    5.1013   -7.7813    1.2100 C   0  0  0  0  0  0
    5.2825   -9.1509    1.1046 C   0  0  0  0  0  0
    4.5353   -9.6707    0.1497 N   0  0  0  0  0  0
    3.8825   -8.6485   -0.3499 C   0  0  0  0  0  0
   -1.5267    1.4046   -1.8577 H   0  0  0  0  0  0
   -0.6382    4.9817    2.0182 H   0  0  0  0  0  0
   -2.7789    4.0534   -2.4221 H   0  0  0  0  0  0
   -0.2445   -0.3656    1.0173 H   0  0  0  0  0  0
   -0.4865   -0.5372   -0.6946 H   0  0  0  0  0  0
    1.8047    0.4721   -1.1124 H   0  0  0  0  0  0
    2.0252    0.6481    0.6028 H   0  0  0  0  0  0
    2.6029   -1.5221    0.8041 H   0  0  0  0  0  0
    0.8646   -4.6998   -1.2958 H   0  0  0  0  0  0
    1.7573   -6.8999   -0.7805 H   0  0  0  0  0  0
    5.4209   -5.1019    0.5780 H   0  0  0  0  0  0
   -2.9916    7.4103    1.1844 H   0  0  0  0  0  0
   -1.4911    7.9104    0.4133 H   0  0  0  0  0  0
   -1.4580    7.1846    2.0233 H   0  0  0  0  0  0
   -2.5788    7.4712   -1.7562 H   0  0  0  0  0  0
   -4.0582    6.9202   -0.9796 H   0  0  0  0  0  0
   -3.5868    6.2615   -2.5488 H   0  0  0  0  0  0
    5.5339   -7.0422    1.8684 H   0  0  0  0  0  0
    5.9418   -9.7577    1.7081 H   0  0  0  0  0  0
    3.1756   -8.6921   -1.1653 H   0  0  0  0  0  0
  1  7  1  0  0  0
  1  8  1  0  0  0
  1 29  1  0  0  0
  2  3  2  0  0  0
  2  7  1  0  0  0
  2  9  1  0  0  0
  3  6  1  0  0  0
  3 30  1  0  0  0
  4  7  2  0  0  0
  4  5  1  0  0  0
  4 31  1  0  0  0
  5  6  2  0  0  0
  5 22  1  0  0  0
  6 21  1  0  0  0
  8  9  2  0  0  0
  8 10  1  0  0  0
 10 11  1  0  0  0
 10 32  1  0  0  0
 10 33  1  0  0  0
 11 12  1  0  0  0
 11 34  1  0  0  0
 11 35  1  0  0  0
 12 13  1  0  0  0
 12 36  1  0  0  0
 13 14  1  0  0  0
 13 15  2  0  0  0
 14 16  2  0  0  0
 14 20  1  0  0  0
 16 17  1  0  0  0
 16 37  1  0  0  0
 17 18  2  0  0  0
 17 38  1  0  0  0
 18 19  1  0  0  0
 18 24  1  0  0  0
 19 20  2  0  0  0
 19 39  1  0  0  0
 20 23  1  0  0  0
 21 40  1  0  0  0
 21 41  1  0  0  0
 21 42  1  0  0  0
 22 43  1  0  0  0
 22 44  1  0  0  0
 22 45  1  0  0  0
 24 25  1  0  0  0
 24 28  1  0  0  0
 25 26  2  0  0  0
 25 46  1  0  0  0
 26 27  1  0  0  0
 26 47  1  0  0  0
 27 28  2  0  0  0
 28 48  1  0  0  0
M  END
> <chembl_id>
CHEMBL3423044

> <chembl_pref_name>
None

> <s_m_source_file>
sdf/inactives_sanitized.sdf

> <i_m_source_file_index>
230

> <i_lp_mmshare_version>
49012

> <i_m_ct_stereo_status>
1

> <i_f3d_flags>
0

> <s_epik_input>
W2NIXTFjKFtDSDNdKWMoW0NIM10pW2NIXWMoYzEyKVtuSF1jKG4yKVtDSDJdW0NIMl1bTkhdQyg9TyljM1tjSF1bY0hdYyhbY0hdYzNDbCktbjRbY0hdW2NIXW5bY0hdNA==

> <s_epik_cmdline>
J2VwaWtfcHl0aG9uJywgJy1waHQnLCAnMC41JywgJy1waCcsICc3LjUnLCAnLW50JywgJy1tYScsICcyMDAnLCAnLWltYWUnLCAnPGluZmlsZS5tYWU+JywgJy1vbWFlJywgJzxvdXRmaWxlLm1hZT4n

> <r_lp_tautomer_probability>
1

> <r_epik_Ionization_Penalty>
  0.0300

> <r_epik_Ionization_Penalty_Charging>
  0.0065

> <r_epik_Ionization_Penalty_Neutral>
  0.0235

> <r_epik_State_Penalty>
  0.0190

> <r_epik_Charging_Adjusted_Penalty>
0.0254918343997105

> <i_epik_Tot_Q>
0

> <i_epik_Tot_abs_Q>
0

> <s_lp_Force_Field>
OPLS3e

> <r_lp_Energy>
26.811741

> <b_lp_Chiralities_Consistent>
1

> <s_lp_Variant>
sdf/inactives_sanitized.sdf:230-1

$$$$
sdf/inactives_sanitized.sdf:231
                    3D
 Schrodinger Suite 2020-1.
 47 50  0  0  1  0            999 V2000
   -0.4373    2.1114    1.2492 N   0  0  0  0  0  0
   -1.3644    3.1528   -0.4479 C   0  0  0  0  0  0
   -1.9303    4.2235   -1.1500 C   0  0  0  0  0  0
   -1.0454    4.5683    1.5426 C   0  0  0  0  0  0
   -1.6149    5.6274    0.8224 C   0  0  0  0  0  0
   -2.0524    5.4602   -0.5061 C   0  0  0  0  0  0
   -0.9312    3.3424    0.8853 C   0  0  0  0  0  0
   -0.5889    1.2754    0.1674 C   0  0  0  0  0  0
   -1.1423    1.8659   -0.8638 N   0  0  0  0  0  0
   -0.1030   -0.1618    0.1687 C   0  0  0  0  0  0
    1.4295   -0.3000    0.0334 C   0  0  0  0  0  0
    1.9750    0.3645   -1.1534 N   0  0  0  0  0  0
    2.5005    1.6057   -1.1882 C   0  0  0  0  0  0
    2.9152    2.1199   -2.5482 C   0  0  0  0  0  0
    2.6483    2.3014   -0.1808 O   0  0  0  0  0  0
    3.8703    3.1420   -2.6475 C   0  0  0  0  0  0
    4.2545    3.6410   -3.8913 C   0  0  0  0  0  0
    3.6869    3.1301   -5.0563 C   0  0  0  0  0  0
    2.7260    2.1159   -4.9815 C   0  0  0  0  0  0
    2.3454    1.6153   -3.7298 C   0  0  0  0  0  0
   -2.6668    6.6192   -1.2810 C   0  0  0  0  0  0
   -1.7525    6.9739    1.5220 C   0  0  0  0  0  0
    2.1403    1.6050   -6.1581 N   0  0  0  0  0  0
    2.6916    1.4807   -7.4141 C   0  0  0  0  0  0
    1.8509    0.9592   -8.2724 N   0  0  0  0  0  0
    0.6694    0.7159   -7.5786 N   0  0  0  0  0  0
    0.8704    1.1047   -6.3444 C   0  0  0  0  0  0
   -0.0198    1.8261    2.1230 H   0  0  0  0  0  0
   -2.2649    4.0939   -2.1692 H   0  0  0  0  0  0
   -0.7078    4.6945    2.5610 H   0  0  0  0  0  0
   -0.4234   -0.6607    1.0841 H   0  0  0  0  0  0
   -0.5787   -0.7242   -0.6364 H   0  0  0  0  0  0
    1.9130    0.0797    0.9363 H   0  0  0  0  0  0
    1.6937   -1.3562   -0.0272 H   0  0  0  0  0  0
    1.9549   -0.1696   -2.0096 H   0  0  0  0  0  0
    4.3255    3.5595   -1.7603 H   0  0  0  0  0  0
    4.9909    4.4285   -3.9512 H   0  0  0  0  0  0
    3.9917    3.5358   -6.0100 H   0  0  0  0  0  0
    1.5999    0.8341   -3.6804 H   0  0  0  0  0  0
   -3.5783    6.9626   -0.7912 H   0  0  0  0  0  0
   -2.9138    6.3481   -2.3085 H   0  0  0  0  0  0
   -1.9751    7.4615   -1.3160 H   0  0  0  0  0  0
   -1.1593    7.7310    1.0083 H   0  0  0  0  0  0
   -1.4314    6.9365    2.5638 H   0  0  0  0  0  0
   -2.7913    7.3046    1.5083 H   0  0  0  0  0  0
    3.7089    1.7883   -7.6072 H   0  0  0  0  0  0
    0.1617    1.0705   -5.5299 H   0  0  0  0  0  0
  1  7  1  0  0  0
  1  8  1  0  0  0
  1 28  1  0  0  0
  2  3  2  0  0  0
  2  7  1  0  0  0
  2  9  1  0  0  0
  3  6  1  0  0  0
  3 29  1  0  0  0
  4  7  2  0  0  0
  4  5  1  0  0  0
  4 30  1  0  0  0
  5  6  2  0  0  0
  5 22  1  0  0  0
  6 21  1  0  0  0
  8  9  2  0  0  0
  8 10  1  0  0  0
 10 11  1  0  0  0
 10 31  1  0  0  0
 10 32  1  0  0  0
 11 12  1  0  0  0
 11 33  1  0  0  0
 11 34  1  0  0  0
 12 13  1  0  0  0
 12 35  1  0  0  0
 13 14  1  0  0  0
 13 15  2  0  0  0
 14 16  2  0  0  0
 14 20  1  0  0  0
 16 17  1  0  0  0
 16 36  1  0  0  0
 17 18  2  0  0  0
 17 37  1  0  0  0
 18 19  1  0  0  0
 18 38  1  0  0  0
 19 20  2  0  0  0
 19 23  1  0  0  0
 20 39  1  0  0  0
 21 40  1  0  0  0
 21 41  1  0  0  0
 21 42  1  0  0  0
 22 43  1  0  0  0
 22 44  1  0  0  0
 22 45  1  0  0  0
 23 24  1  0  0  0
 23 27  1  0  0  0
 24 25  2  0  0  0
 24 46  1  0  0  0
 25 26  1  0  0  0
 26 27  2  0  0  0
 27 47  1  0  0  0
M  END
> <chembl_id>
CHEMBL3423035

> <chembl_pref_name>
None

> <s_m_source_file>
sdf/inactives_sanitized.sdf

> <i_m_source_file_index>
231

> <i_lp_mmshare_version>
49012

> <i_m_ct_stereo_status>
1

> <i_f3d_flags>
0

> <s_epik_input>
W2NIXTFjKFtDSDNdKWMoW0NIM10pW2NIXWMoYzEyKVtuSF1jKG4yKVtDSDJdW0NIMl1bTkhdQyg9TyljM1tjSF1bY0hdW2NIXWMoW2NIXTMpLW40W2NIXW5uW2NIXTQ=

> <s_epik_cmdline>
J2VwaWtfcHl0aG9uJywgJy1waHQnLCAnMC41JywgJy1waCcsICc3LjUnLCAnLW50JywgJy1tYScsICcyMDAnLCAnLWltYWUnLCAnPGluZmlsZS5tYWU+JywgJy1vbWFlJywgJzxvdXRmaWxlLm1hZT4n

> <r_lp_tautomer_probability>
1

> <r_epik_Ionization_Penalty>
  0.0235

> <r_epik_Ionization_Penalty_Charging>
  0.0000

> <r_epik_Ionization_Penalty_Neutral>
  0.0235

> <r_epik_State_Penalty>
  0.0190

> <r_epik_Charging_Adjusted_Penalty>
0.0189995681741242

> <i_epik_Tot_Q>
0

> <i_epik_Tot_abs_Q>
0

> <s_lp_Force_Field>
OPLS3e

> <r_lp_Energy>
20.558079

> <b_lp_Chiralities_Consistent>
1

> <s_lp_Variant>
sdf/inactives_sanitized.sdf:231-1

$$$$
sdf/inactives_sanitized.sdf:232
                    3D
 Schrodinger Suite 2020-1.
 53 57  0  0  1  0            999 V2000
    2.2489   -1.1372   -0.1036 C   0  0  0  0  0  0
    3.7112   -0.7678   -0.0176 C   0  0  0  0  0  0
    4.2075    0.2780   -0.8107 C   0  0  0  0  0  0
    5.5497    0.6474   -0.7562 C   0  0  0  0  0  0
    6.4344   -0.0146    0.1028 C   0  0  0  0  0  0
    5.9410   -1.0500    0.9096 C   0  0  0  0  0  0
    4.5972   -1.4269    0.8601 C   0  0  0  0  0  0
    4.0901   -2.6939    1.9313 Cl  0  0  0  0  0  0
    7.8023    0.3635    0.1505 N   0  0  0  0  0  0
    8.5274    1.0480   -0.8018 C   0  0  0  0  0  0
    9.8090    1.1733   -0.3028 C   0  0  0  0  0  0
    9.7661    0.5417    0.9399 C   0  0  0  0  0  0
    8.5761    0.0573    1.2125 N   0  0  0  0  0  0
   -0.6118   -1.5753    5.8718 C   0  0  0  0  0  0
   -0.3710   -0.3730    6.5315 C   0  0  0  0  0  0
   -0.1890    0.8018    5.8037 C   0  0  0  0  0  0
   -0.6775   -1.6324    4.4776 C   0  0  0  0  0  0
   -0.4952   -0.4540    3.7246 C   0  0  0  0  0  0
   -0.2531    0.7411    4.4294 N   0  0  0  0  0  0
   -0.0986    1.7958    3.5916 N   0  0  0  0  0  0
   -0.4817   -0.0706    2.3582 C   0  0  0  0  0  0
   -0.2268    1.3109    2.3760 C   0  0  0  0  0  0
   -0.1028    2.1577    1.1127 C   0  0  0  0  0  0
   -0.6610    1.3361   -0.0771 C   0  0  0  0  0  0
   -0.0858   -0.1099   -0.1365 C   0  0  1  0  0  0
   -0.7096   -0.8726    1.0779 C   0  0  0  0  0  0
   -0.5464   -0.7727   -1.4607 C   0  0  0  0  0  0
    1.3923   -0.0942   -0.1165 N   0  0  0  0  0  0
    1.8962   -2.3163   -0.1487 O   0  0  0  0  0  0
   -0.9157   -2.8248    3.8452 O   0  0  0  0  0  0
    0.0736    2.1315    6.4963 C   0  0  0  0  0  0
    3.5563    0.8110   -1.4895 H   0  0  0  0  0  0
    5.8850    1.4585   -1.3852 H   0  0  0  0  0  0
    6.5995   -1.5747    1.5872 H   0  0  0  0  0  0
    8.0841    1.3714   -1.7315 H   0  0  0  0  0  0
   10.6567    1.6511   -0.7719 H   0  0  0  0  0  0
   10.5916    0.4379    1.6289 H   0  0  0  0  0  0
   -0.7497   -2.4754    6.4535 H   0  0  0  0  0  0
   -0.3269   -0.3583    7.6109 H   0  0  0  0  0  0
   -0.6498    3.0968    1.2053 H   0  0  0  0  0  0
    0.9420    2.4141    0.9329 H   0  0  0  0  0  0
   -1.7528    1.3228   -0.0640 H   0  0  0  0  0  0
   -0.3806    1.8753   -0.9838 H   0  0  0  0  0  0
   -0.2894   -1.8740    1.1701 H   0  0  0  0  0  0
   -1.7811   -1.0183    0.9330 H   0  0  0  0  0  0
   -1.6305   -0.7242   -1.5715 H   0  0  0  0  0  0
   -0.2741   -1.8271   -1.5133 H   0  0  0  0  0  0
   -0.1124   -0.2780   -2.3308 H   0  0  0  0  0  0
    1.7999    0.8266   -0.0476 H   0  0  0  0  0  0
   -1.0149   -3.5615    4.4528 H   0  0  0  0  0  0
    0.1158    2.0204    7.5804 H   0  0  0  0  0  0
   -0.7171    2.8445    6.2605 H   0  0  0  0  0  0
    1.0228    2.5529    6.1634 H   0  0  0  0  0  0
  1  2  1  0  0  0
  1 28  1  0  0  0
  1 29  2  0  0  0
  2  3  2  0  0  0
  2  7  1  0  0  0
  3  4  1  0  0  0
  3 32  1  0  0  0
  4  5  2  0  0  0
  4 33  1  0  0  0
  5  6  1  0  0  0
  5  9  1  0  0  0
  6  7  2  0  0  0
  6 34  1  0  0  0
  7  8  1  0  0  0
  9 10  1  0  0  0
  9 13  1  0  0  0
 10 11  2  0  0  0
 10 35  1  0  0  0
 11 12  1  0  0  0
 11 36  1  0  0  0
 12 13  2  0  0  0
 12 37  1  0  0  0
 14 15  1  0  0  0
 14 17  2  0  0  0
 14 38  1  0  0  0
 15 16  2  0  0  0
 15 39  1  0  0  0
 16 19  1  0  0  0
 16 31  1  0  0  0
 17 18  1  0  0  0
 17 30  1  0  0  0
 18 19  1  0  0  0
 18 21  2  0  0  0
 19 20  1  0  0  0
 20 22  2  0  0  0
 21 22  1  0  0  0
 21 26  1  0  0  0
 22 23  1  0  0  0
 23 24  1  0  0  0
 23 40  1  0  0  0
 23 41  1  0  0  0
 24 25  1  0  0  0
 24 42  1  0  0  0
 24 43  1  0  0  0
 25 26  1  0  0  0
 25 27  1  0  0  0
 25 28  1  0  0  0
 26 44  1  0  0  0
 26 45  1  0  0  0
 27 46  1  0  0  0
 27 47  1  0  0  0
 27 48  1  0  0  0
 28 49  1  0  0  0
 30 50  1  0  0  0
 31 51  1  0  0  0
 31 52  1  0  0  0
 31 53  1  0  0  0
M  END
> <chembl_id>
CHEMBL3423054

> <chembl_pref_name>
None

> <s_m_source_file>
sdf/inactives_sanitized.sdf

> <i_m_source_file_index>
232

> <i_lp_mmshare_version>
49012

> <i_m_ct_stereo_status>
1

> <i_f3d_flags>
0

> <s_epik_input>
bjFbY0hdW2NIXVtjSF1uMS1jKFtjSF1jMkNsKVtjSF1bY0hdYzJDKD1PKVtOSF1bQ0BdKFtDSDNdKShbQ0gyXVtDSDJdMylbQ0gyXWM0YzNubihjNDUpYyhbQ0gzXSlbY0hdW2NIXWM1W09IXQ==

> <s_epik_cmdline>
J2VwaWtfcHl0aG9uJywgJy1waHQnLCAnMC41JywgJy1waCcsICc3LjUnLCAnLW50JywgJy1tYScsICcyMDAnLCAnLWltYWUnLCAnPGluZmlsZS5tYWU+JywgJy1vbWFlJywgJzxvdXRmaWxlLm1hZT4n

> <r_lp_tautomer_probability>
1

> <r_epik_Ionization_Penalty>
  0.0172

> <r_epik_Ionization_Penalty_Charging>
  0.0000

> <r_epik_Ionization_Penalty_Neutral>
  0.0172

> <r_epik_State_Penalty>
  0.0136

> <r_epik_Charging_Adjusted_Penalty>
0.0135721177526746

> <i_epik_Tot_Q>
0

> <i_epik_Tot_abs_Q>
0

> <s_lp_Force_Field>
OPLS3e

> <r_lp_Energy>
36.704332

> <b_lp_Chiralities_Consistent>
1

> <s_lp_Variant>
sdf/inactives_sanitized.sdf:232-1

$$$$
sdf/inactives_sanitized.sdf:233
                    3D
 Schrodinger Suite 2020-1.
 74 79  0  0  1  0            999 V2000
   -4.1636    2.5895    0.1995 C   0  0  0  0  0  0
   -5.0292    1.5322    0.4637 C   0  0  0  0  0  0
   -4.5207    0.2631    0.7271 C   0  0  0  0  0  0
   -3.1398    0.0487    0.7274 C   0  0  0  0  0  0
   -2.2523    1.1028    0.4490 C   0  0  0  0  0  0
   -2.7782    2.3876    0.1857 C   0  0  0  0  0  0
   -0.7951    0.8624    0.5133 C   0  0  0  0  0  0
   -0.1483   -0.0854   -0.1963 C   0  0  0  0  0  0
    1.2863   -0.2917   -0.1007 C   0  0  0  0  0  0
    2.0212    0.6298    0.2681 O   0  0  0  0  0  0
    1.7750   -1.5186   -0.4587 N   0  0  0  0  0  0
   -1.9566    3.5031   -0.0948 N   0  0  0  0  0  0
   -5.6109   -1.0350    1.0629 Cl  0  0  0  0  0  0
   -2.0230    4.7745    0.4270 C   0  0  0  0  0  0
   -1.1126    5.5485   -0.1067 N   0  0  0  0  0  0
   -0.4438    4.7413   -1.0216 N   0  0  0  0  0  0
   -0.9827    3.4683   -1.0171 N   0  0  0  0  0  0
    3.2470   -1.7555   -0.4316 C   0  0  2  0  0  0
    1.5672   -4.0560   -0.4989 C   0  0  0  0  0  0
    0.8796   -2.6808   -0.7300 C   0  0  0  0  0  0
    3.8336   -2.0785   -1.8351 C   0  0  0  0  0  0
    3.1071   -2.1022   -2.8327 O   0  0  0  0  0  0
    5.1620   -2.3268   -1.8682 N   0  0  0  0  0  0
    5.9455   -2.6474   -2.9882 C   0  0  0  0  0  0
    7.0080   -3.5271   -2.7863 C   0  0  0  0  0  0
    7.8386   -3.8739   -3.8483 C   0  0  0  0  0  0
    7.6273   -3.3392   -5.1285 C   0  0  0  0  0  0
    6.5635   -2.4434   -5.3164 C   0  0  0  0  0  0
    5.7311   -2.0938   -4.2566 C   0  0  0  0  0  0
    2.6858   -4.0249    0.5456 C   0  0  0  0  0  0
    3.5276   -2.8973    0.5501 C   0  0  0  0  0  0
    4.5553   -2.8074    1.4949 C   0  0  0  0  0  0
    4.7669   -3.8220    2.4227 C   0  0  0  0  0  0
    3.9434   -4.9419    2.4219 C   0  0  0  0  0  0
    2.9079   -5.0502    1.4876 C   0  0  0  0  0  0
    8.5250   -3.7136   -6.2730 C   0  0  0  0  0  0
    8.2745   -3.2295   -7.4007 O   0  0  0  0  0  0
    9.4809   -4.4896   -6.0424 O   0  5  0  0  0  0
    2.0951   -6.1986    1.5171 N   0  0  0  0  0  0
    2.3323   -7.2324    0.6488 C   0  0  0  0  0  0
    1.3391   -8.4286    0.7088 C   0  0  0  0  0  0
    0.7526   -8.6445    2.0387 N   0  0  2  0  0  0
    0.1430   -7.4259    2.5594 C   0  0  0  0  0  0
    1.1465   -6.2598    2.6511 C   0  0  0  0  0  0
    3.2131   -7.2036   -0.2145 O   0  0  0  0  0  0
    1.6849   -9.2490    2.9924 C   0  0  0  0  0  0
   -2.6641   -1.1884    1.0126 F   0  0  0  0  0  0
   -4.5795    3.5661   -0.0044 H   0  0  0  0  0  0
   -6.0963    1.7008    0.4661 H   0  0  0  0  0  0
   -0.2470    1.5046    1.1898 H   0  0  0  0  0  0
   -0.7041   -0.7206   -0.8703 H   0  0  0  0  0  0
   -2.7524    5.0326    1.1809 H   0  0  0  0  0  0
    3.8060   -0.8681   -0.1300 H   0  0  0  0  0  0
    2.0106   -4.3745   -1.4429 H   0  0  0  0  0  0
    0.8071   -4.8101   -0.2954 H   0  0  0  0  0  0
    0.1031   -2.6653    0.0368 H   0  0  0  0  0  0
    0.3570   -2.6312   -1.6860 H   0  0  0  0  0  0
    5.6395   -2.3844   -0.9807 H   0  0  0  0  0  0
    7.1924   -3.9522   -1.8097 H   0  0  0  0  0  0
    8.6492   -4.5638   -3.6611 H   0  0  0  0  0  0
    6.3727   -2.0026   -6.2846 H   0  0  0  0  0  0
    4.9342   -1.3868   -4.4323 H   0  0  0  0  0  0
    5.1927   -1.9353    1.5143 H   0  0  0  0  0  0
    5.5651   -3.7372    3.1453 H   0  0  0  0  0  0
    4.1142   -5.7266    3.1451 H   0  0  0  0  0  0
    0.5436   -8.2543   -0.0171 H   0  0  0  0  0  0
    1.8470   -9.3327    0.3680 H   0  0  0  0  0  0
   -0.6413   -7.1634    1.8475 H   0  0  0  0  0  0
   -0.3312   -7.6161    3.5232 H   0  0  0  0  0  0
    1.7548   -6.3968    3.5460 H   0  0  0  0  0  0
    0.6344   -5.3072    2.7930 H   0  0  0  0  0  0
    1.1861   -9.4511    3.9411 H   0  0  0  0  0  0
    2.5450   -8.6084    3.1913 H   0  0  0  0  0  0
    2.0564  -10.2005    2.6101 H   0  0  0  0  0  0
  1  2  2  0  0  0
  1  6  1  0  0  0
  1 48  1  0  0  0
  2  3  1  0  0  0
  2 49  1  0  0  0
  3  4  2  0  0  0
  3 13  1  0  0  0
  4  5  1  0  0  0
  4 47  1  0  0  0
  5  6  2  0  0  0
  5  7  1  0  0  0
  6 12  1  0  0  0
  7  8  2  0  0  0
  7 50  1  0  0  0
  8  9  1  0  0  0
  8 51  1  0  0  0
  9 10  2  0  0  0
  9 11  1  0  0  0
 11 18  1  0  0  0
 11 20  1  0  0  0
 12 14  1  0  0  0
 12 17  1  0  0  0
 14 15  2  0  0  0
 14 52  1  0  0  0
 15 16  1  0  0  0
 16 17  2  0  0  0
 18 31  1  0  0  0
 18 21  1  0  0  0
 18 53  1  0  0  0
 19 30  1  0  0  0
 19 20  1  0  0  0
 19 54  1  0  0  0
 19 55  1  0  0  0
 20 56  1  0  0  0
 20 57  1  0  0  0
 21 22  2  0  0  0
 21 23  1  0  0  0
 23 24  1  0  0  0
 23 58  1  0  0  0
 24 25  2  0  0  0
 24 29  1  0  0  0
 25 26  1  0  0  0
 25 59  1  0  0  0
 26 27  2  0  0  0
 26 60  1  0  0  0
 27 28  1  0  0  0
 27 36  1  0  0  0
 28 29  2  0  0  0
 28 61  1  0  0  0
 29 62  1  0  0  0
 30 31  2  0  0  0
 30 35  1  0  0  0
 31 32  1  0  0  0
 32 33  2  0  0  0
 32 63  1  0  0  0
 33 34  1  0  0  0
 33 64  1  0  0  0
 34 35  2  0  0  0
 34 65  1  0  0  0
 35 39  1  0  0  0
 36 37  2  0  0  0
 36 38  1  0  0  0
 39 40  1  0  0  0
 39 44  1  0  0  0
 40 41  1  0  0  0
 40 45  2  0  0  0
 41 42  1  0  0  0
 41 66  1  0  0  0
 41 67  1  0  0  0
 42 43  1  0  0  0
 42 46  1  0  0  0
 43 44  1  0  0  0
 43 68  1  0  0  0
 43 69  1  0  0  0
 44 70  1  0  0  0
 44 71  1  0  0  0
 46 72  1  0  0  0
 46 73  1  0  0  0
 46 74  1  0  0  0
M  CHG  1  38  -1
M  END
> <chembl_id>
CHEMBL4073292

> <chembl_pref_name>
BMS-962212

> <i_m_ct_stereo_status>
1

> <s_m_source_file>
sdf/inactives_sanitized.sdf

> <i_m_source_file_index>
233

> <i_lp_mmshare_version>
49012

> <i_f3d_flags>
0

> <s_epik_input>
bjFubltjSF1uMS1jKFtjSF1bY0hdYzJDbCljKGMyRikvW0NIXT1bQ0hdL0MoPU8pTihbQ0gyXVtDSDJdMylbQ0BIXShDKD1PKVtOSF1jNFtjSF1bY0hdYyhbY0hdW2NIXTQpQyg9TylbT0hdKWMoYzM1KVtjSF1bY0hdW2NIXWM1TjZDKD1PKVtDSDJdTihbQ0gzXSlbQ0gyXVtDSDJdNg==

> <s_epik_cmdline>
J2VwaWtfcHl0aG9uJywgJy1waHQnLCAnMC41JywgJy1waCcsICc3LjUnLCAnLW50JywgJy1tYScsICcyMDAnLCAnLWltYWUnLCAnPGluZmlsZS5tYWU+JywgJy1vbWFlJywgJzxvdXRmaWxlLm1hZT4n

> <r_lp_tautomer_probability>
1

> <r_epik_Ionization_Penalty>
  0.3722

> <r_epik_Ionization_Penalty_Charging>
  0.0003

> <r_epik_Ionization_Penalty_Neutral>
  0.3719

> <r_epik_State_Penalty>
  0.3693

> <r_epik_Charging_Adjusted_Penalty>
0.369651031204169

> <i_epik_Tot_Q>
-1

> <i_epik_Tot_abs_Q>
1

> <s_lp_Force_Field>
OPLS3e

> <r_lp_Energy>
99.239133

> <b_lp_Chiralities_Consistent>
1

> <s_lp_Variant>
sdf/inactives_sanitized.sdf:233-1

$$$$
sdf/inactives_sanitized.sdf:233
                    3D
 Schrodinger Suite 2020-1.
 75 80  0  0  1  0            999 V2000
   -4.1855    2.5629    0.1354 C   0  0  0  0  0  0
   -5.0301    1.6632   -0.5083 C   0  0  0  0  0  0
   -4.4965    0.5934   -1.2223 C   0  0  0  0  0  0
   -3.1119    0.4174   -1.2878 C   0  0  0  0  0  0
   -2.2461    1.3105   -0.6345 C   0  0  0  0  0  0
   -2.7955    2.4051    0.0707 C   0  0  0  0  0  0
   -0.7887    1.0860   -0.7211 C   0  0  0  0  0  0
   -0.1644    0.0006   -0.2188 C   0  0  0  0  0  0
    1.2731   -0.1937   -0.3207 C   0  0  0  0  0  0
    2.0127    0.7698   -0.5473 O   0  0  0  0  0  0
    1.7682   -1.4574   -0.1295 N   0  0  0  0  0  0
   -1.9987    3.3555    0.7492 N   0  0  0  0  0  0
   -5.5608   -0.5092   -2.0211 Cl  0  0  0  0  0  0
   -2.1427    3.8416    2.0287 C   0  0  0  0  0  0
   -1.2367    4.7485    2.2914 N   0  0  0  0  0  0
   -0.4891    4.8600    1.1234 N   0  0  0  0  0  0
   -0.9781    3.9967    0.1607 N   0  0  0  0  0  0
    3.2500   -1.6643   -0.1918 C   0  0  2  0  0  0
    1.6212   -3.9799   -0.1168 C   0  0  0  0  0  0
    0.8625   -2.6366   -0.0059 C   0  0  0  0  0  0
    3.7626   -1.9254   -1.6372 C   0  0  0  0  0  0
    2.9700   -2.1169   -2.5636 O   0  0  0  0  0  0
    5.1063   -1.9271   -1.7818 N   0  0  0  0  0  0
    5.8454   -2.1212   -2.9597 C   0  0  0  0  0  0
    7.0870   -2.7420   -2.8299 C   0  0  0  0  0  0
    7.8865   -2.9467   -3.9509 C   0  0  0  0  0  0
    7.4634   -2.5241   -5.2206 C   0  0  0  0  0  0
    6.2181   -1.8875   -5.3373 C   0  0  0  0  0  0
    5.4159   -1.6814   -4.2183 C   0  0  0  0  0  0
    2.8602   -3.9784    0.7741 C   0  0  0  0  0  0
    3.6712   -2.8308    0.7121 C   0  0  0  0  0  0
    4.8218   -2.7591    1.5051 C   0  0  0  0  0  0
    5.1840   -3.8106    2.3411 C   0  0  0  0  0  0
    4.3876   -4.9482    2.4062 C   0  0  0  0  0  0
    3.2233   -5.0339    1.6354 C   0  0  0  0  0  0
    8.3292   -2.7425   -6.4284 C   0  0  0  0  0  0
    7.9023   -2.3487   -7.5383 O   0  0  0  0  0  0
    9.4357   -3.3066   -6.2652 O   0  5  0  0  0  0
    2.4385   -6.1981    1.7337 N   0  0  0  0  0  0
    1.3615   -6.2164    2.5833 C   0  0  0  0  0  0
    0.5261   -7.5167    2.6131 C   0  0  0  0  0  0
    1.3298   -8.7849    2.2691 N   0  3  1  0  0  0
    2.0733   -8.5964    0.9413 C   0  0  0  0  0  0
    2.9897   -7.3592    0.9947 C   0  0  0  0  0  0
    1.0005   -5.2403    3.2450 O   0  0  0  0  0  0
    2.2855   -9.2001    3.4107 C   0  0  0  0  0  0
   -2.6098   -0.6293   -1.9882 F   0  0  0  0  0  0
   -4.6203    3.3907    0.6775 H   0  0  0  0  0  0
   -6.1004    1.8009   -0.4550 H   0  0  0  0  0  0
   -0.2236    1.8514   -1.2355 H   0  0  0  0  0  0
   -0.7478   -0.7544    0.2862 H   0  0  0  0  0  0
   -2.9219    3.4764    2.6815 H   0  0  0  0  0  0
    3.7799   -0.7620    0.1203 H   0  0  0  0  0  0
    1.9211   -4.1495   -1.1510 H   0  0  0  0  0  0
    0.9357   -4.7964    0.1061 H   0  0  0  0  0  0
    0.3214   -2.6046    0.9407 H   0  0  0  0  0  0
    0.1096   -2.6303   -0.7959 H   0  0  0  0  0  0
    5.6570   -1.8596   -0.9387 H   0  0  0  0  0  0
    7.4385   -3.0735   -1.8631 H   0  0  0  0  0  0
    8.8408   -3.4362   -3.8175 H   0  0  0  0  0  0
    5.8598   -1.5391   -6.2956 H   0  0  0  0  0  0
    4.4737   -1.1689   -4.3432 H   0  0  0  0  0  0
    5.4432   -1.8761    1.4702 H   0  0  0  0  0  0
    6.0786   -3.7404    2.9422 H   0  0  0  0  0  0
    4.6722   -5.7579    3.0631 H   0  0  0  0  0  0
    0.0816   -7.6790    3.5964 H   0  0  0  0  0  0
   -0.2730   -7.4533    1.8731 H   0  0  0  0  0  0
    2.6378   -9.5140    0.7687 H   0  0  0  0  0  0
    1.3142   -8.5176    0.1614 H   0  0  0  0  0  0
    3.1889   -7.0273   -0.0256 H   0  0  0  0  0  0
    3.9617   -7.6310    1.4084 H   0  0  0  0  0  0
    3.0066   -8.4000    3.5820 H   0  0  0  0  0  0
    2.7779  -10.1217    3.0984 H   0  0  0  0  0  0
    1.6687   -9.3743    4.2933 H   0  0  0  0  0  0
    0.6715   -9.5432    2.1532 H   0  0  0  0  0  0
  1  2  2  0  0  0
  1  6  1  0  0  0
  1 48  1  0  0  0
  2  3  1  0  0  0
  2 49  1  0  0  0
  3  4  2  0  0  0
  3 13  1  0  0  0
  4  5  1  0  0  0
  4 47  1  0  0  0
  5  6  2  0  0  0
  5  7  1  0  0  0
  6 12  1  0  0  0
  7  8  2  0  0  0
  7 50  1  0  0  0
  8  9  1  0  0  0
  8 51  1  0  0  0
  9 10  2  0  0  0
  9 11  1  0  0  0
 11 18  1  0  0  0
 11 20  1  0  0  0
 12 14  1  0  0  0
 12 17  1  0  0  0
 14 15  2  0  0  0
 14 52  1  0  0  0
 15 16  1  0  0  0
 16 17  2  0  0  0
 18 31  1  0  0  0
 18 21  1  0  0  0
 18 53  1  0  0  0
 19 30  1  0  0  0
 19 20  1  0  0  0
 19 54  1  0  0  0
 19 55  1  0  0  0
 20 56  1  0  0  0
 20 57  1  0  0  0
 21 22  2  0  0  0
 21 23  1  0  0  0
 23 24  1  0  0  0
 23 58  1  0  0  0
 24 25  2  0  0  0
 24 29  1  0  0  0
 25 26  1  0  0  0
 25 59  1  0  0  0
 26 27  2  0  0  0
 26 60  1  0  0  0
 27 28  1  0  0  0
 27 36  1  0  0  0
 28 29  2  0  0  0
 28 61  1  0  0  0
 29 62  1  0  0  0
 30 31  2  0  0  0
 30 35  1  0  0  0
 31 32  1  0  0  0
 32 33  2  0  0  0
 32 63  1  0  0  0
 33 34  1  0  0  0
 33 64  1  0  0  0
 34 35  2  0  0  0
 34 65  1  0  0  0
 35 39  1  0  0  0
 36 37  2  0  0  0
 36 38  1  0  0  0
 39 40  1  0  0  0
 39 44  1  0  0  0
 40 41  1  0  0  0
 40 45  2  0  0  0
 41 42  1  0  0  0
 41 66  1  0  0  0
 41 67  1  0  0  0
 42 43  1  0  0  0
 42 46  1  0  0  0
 42 75  1  0  0  0
 43 44  1  0  0  0
 43 68  1  0  0  0
 43 69  1  0  0  0
 44 70  1  0  0  0
 44 71  1  0  0  0
 46 72  1  0  0  0
 46 73  1  0  0  0
 46 74  1  0  0  0
M  CHG  2  38  -1  42   1
M  END
> <chembl_id>
CHEMBL4073292

> <chembl_pref_name>
BMS-962212

> <i_m_ct_stereo_status>
1

> <s_m_source_file>
sdf/inactives_sanitized.sdf

> <i_m_source_file_index>
233

> <i_lp_mmshare_version>
49012

> <i_f3d_flags>
0

> <s_epik_input>
bjFubltjSF1uMS1jKFtjSF1bY0hdYzJDbCljKGMyRikvW0NIXT1bQ0hdL0MoPU8pTihbQ0gyXVtDSDJdMylbQ0BIXShDKD1PKVtOSF1jNFtjSF1bY0hdYyhbY0hdW2NIXTQpQyg9TylbT0hdKWMoYzM1KVtjSF1bY0hdW2NIXWM1TjZDKD1PKVtDSDJdTihbQ0gzXSlbQ0gyXVtDSDJdNg==

> <s_epik_cmdline>
J2VwaWtfcHl0aG9uJywgJy1waHQnLCAnMC41JywgJy1waCcsICc3LjUnLCAnLW50JywgJy1tYScsICcyMDAnLCAnLWltYWUnLCAnPGluZmlsZS5tYWU+JywgJy1vbWFlJywgJzxvdXRmaWxlLm1hZT4n

> <r_lp_tautomer_probability>
1

> <r_epik_Ionization_Penalty>
  0.4525

> <r_epik_Ionization_Penalty_Charging>
  0.4525

> <r_epik_Ionization_Penalty_Neutral>
  0.0000

> <r_epik_State_Penalty>
  0.4551

> <r_epik_Charging_Adjusted_Penalty>
0.907648144230798

> <i_epik_Tot_Q>
0

> <i_epik_Tot_abs_Q>
2

> <s_lp_Force_Field>
OPLS3e

> <r_lp_Energy>
102.598356

> <b_lp_Chiralities_Consistent>
1

> <s_lp_Variant>
sdf/inactives_sanitized.sdf:233-2

$$$$
sdf/inactives_sanitized.sdf:234
                    3D
 Schrodinger Suite 2020-1.
 61 65  0  0  1  0            999 V2000
   -5.0972    3.1086   -0.9551 C   0  0  0  0  0  0
   -3.8354    2.2173   -0.9688 C   0  0  2  0  0  0
   -2.8863    2.6202    0.2132 C   0  0  0  0  0  0
   -1.8430    1.5808    0.7060 C   0  0  0  0  0  0
   -0.5385    1.4536   -0.1273 C   0  0  0  0  0  0
    0.0747    0.0114   -0.1904 C   0  0  2  0  0  0
    1.5615    0.0172   -0.0977 N   0  0  0  0  0  0
    2.3519    0.8692   -0.8466 C   0  0  0  0  0  0
    3.6971    0.9168   -0.8121 C   0  0  0  0  0  0
    4.3845   -0.0009    0.0894 C   0  0  0  0  0  0
    3.6124   -0.8613    0.8066 C   0  0  0  0  0  0
    2.1509   -0.9247    0.7295 C   0  0  0  0  0  0
    1.5418   -1.7863    1.3672 O   0  0  0  0  0  0
    5.8660   -0.0163    0.1859 C   0  0  0  0  0  0
    6.5526   -1.2390    0.2379 C   0  0  0  0  0  0
    7.9400   -1.2789    0.3639 C   0  0  0  0  0  0
    8.6644   -0.0937    0.4550 C   0  0  0  0  0  0
    8.0010    1.1319    0.4279 C   0  0  0  0  0  0
    8.9141    2.5932    0.5601 Cl  0  0  0  0  0  0
    6.6080    1.1733    0.3021 C   0  0  0  0  0  0
    5.9819    2.3751    0.3089 F   0  0  0  0  0  0
   -0.4769   -0.7884   -1.3925 C   0  0  0  0  0  0
   -1.8415   -0.7498   -1.6683 C   0  0  0  0  0  0
   -2.3441   -1.2896   -2.8474 C   0  0  0  0  0  0
   -1.4654   -1.9888   -3.6821 C   0  0  0  0  0  0
   -0.1164   -2.0618   -3.3195 C   0  0  0  0  0  0
    0.3860   -1.4600   -2.2077 N   0  0  0  0  0  0
   -3.7731   -1.0403   -3.1759 C   0  0  0  0  0  0
   -4.6684   -2.1124   -3.3046 C   0  0  0  0  0  0
   -4.2332   -3.3887   -3.1826 F   0  0  0  0  0  0
   -6.0239   -1.8808   -3.5375 C   0  0  0  0  0  0
   -6.5047   -0.5782   -3.6487 C   0  0  0  0  0  0
   -7.8190   -0.3603   -3.8789 F   0  0  0  0  0  0
   -5.6291    0.4994   -3.5390 C   0  0  0  0  0  0
   -4.2687    0.2787   -3.3006 C   0  0  0  0  0  0
   -3.3956    1.3807   -3.3313 N   0  0  0  0  0  0
   -3.1684    2.3021   -2.3676 C   0  0  0  0  0  0
   -2.4155    3.2444   -2.6099 O   0  0  0  0  0  0
   -5.8007    2.8353   -1.7417 H   0  0  0  0  0  0
   -4.8488    4.1624   -1.0927 H   0  0  0  0  0  0
   -5.6333    3.0189   -0.0096 H   0  0  0  0  0  0
   -4.1786    1.1984   -0.7907 H   0  0  0  0  0  0
   -2.3920    3.5718    0.0092 H   0  0  0  0  0  0
   -3.5174    2.8279    1.0790 H   0  0  0  0  0  0
   -1.5446    1.8629    1.7171 H   0  0  0  0  0  0
   -2.3335    0.6201    0.8537 H   0  0  0  0  0  0
   -0.6898    1.8210   -1.1413 H   0  0  0  0  0  0
    0.1814    2.1525    0.3025 H   0  0  0  0  0  0
   -0.3283   -0.5114    0.6785 H   0  0  0  0  0  0
    1.7721    1.4879   -1.5164 H   0  0  0  0  0  0
    4.2420    1.5962   -1.4512 H   0  0  0  0  0  0
    4.0876   -1.5583    1.4822 H   0  0  0  0  0  0
    6.0110   -2.1716    0.1681 H   0  0  0  0  0  0
    8.4528   -2.2291    0.3930 H   0  0  0  0  0  0
    9.7397   -0.1284    0.5536 H   0  0  0  0  0  0
   -2.5240   -0.2423   -1.0160 H   0  0  0  0  0  0
   -1.8117   -2.4406   -4.6003 H   0  0  0  0  0  0
    0.5928   -2.5848   -3.9441 H   0  0  0  0  0  0
   -6.7049   -2.7143   -3.6285 H   0  0  0  0  0  0
   -6.0082    1.5033   -3.6651 H   0  0  0  0  0  0
   -2.8524    1.4699   -4.1777 H   0  0  0  0  0  0
  1  2  1  0  0  0
  1 39  1  0  0  0
  1 40  1  0  0  0
  1 41  1  0  0  0
  2  3  1  0  0  0
  2 37  1  0  0  0
  2 42  1  0  0  0
  3  4  1  0  0  0
  3 43  1  0  0  0
  3 44  1  0  0  0
  4  5  1  0  0  0
  4 45  1  0  0  0
  4 46  1  0  0  0
  5  6  1  0  0  0
  5 47  1  0  0  0
  5 48  1  0  0  0
  6  7  1  0  0  0
  6 22  1  0  0  0
  6 49  1  0  0  0
  7  8  1  0  0  0
  7 12  1  0  0  0
  8  9  2  0  0  0
  8 50  1  0  0  0
  9 10  1  0  0  0
  9 51  1  0  0  0
 10 11  2  0  0  0
 10 14  1  0  0  0
 11 12  1  0  0  0
 11 52  1  0  0  0
 12 13  2  0  0  0
 14 15  2  0  0  0
 14 20  1  0  0  0
 15 16  1  0  0  0
 15 53  1  0  0  0
 16 17  2  0  0  0
 16 54  1  0  0  0
 17 18  1  0  0  0
 17 55  1  0  0  0
 18 19  1  0  0  0
 18 20  2  0  0  0
 20 21  1  0  0  0
 22 23  1  0  0  0
 22 27  2  0  0  0
 23 24  2  0  0  0
 23 56  1  0  0  0
 24 25  1  0  0  0
 24 28  1  0  0  0
 25 26  2  0  0  0
 25 57  1  0  0  0
 26 27  1  0  0  0
 26 58  1  0  0  0
 28 29  2  0  0  0
 28 35  1  0  0  0
 29 30  1  0  0  0
 29 31  1  0  0  0
 31 32  2  0  0  0
 31 59  1  0  0  0
 32 33  1  0  0  0
 32 34  1  0  0  0
 34 35  2  0  0  0
 34 60  1  0  0  0
 35 36  1  0  0  0
 36 37  1  0  0  0
 36 61  1  0  0  0
 37 38  2  0  0  0
M  END
> <chembl_id>
CHEMBL4110071

> <chembl_pref_name>
None

> <i_m_ct_stereo_status>
1

> <s_m_source_file>
sdf/inactives_sanitized.sdf

> <i_m_source_file_index>
234

> <i_lp_mmshare_version>
49012

> <i_f3d_flags>
0

> <s_epik_input>
bjFbY0hdW2NIXWMoW2NIXWMxMiljM2MoW2NIXWMoRilbY0hdYzNGKVtOSF1DKD1PKVtDQEhdKFtDSDNdKVtDSDJdW0NIMl1bQ0gyXVtDQEBIXTJuNFtjSF1bY0hdYyhbY0hdYzQ9TyktYzVbY0hdW2NIXVtjSF1jKENsKWM1Rg==

> <s_epik_cmdline>
J2VwaWtfcHl0aG9uJywgJy1waHQnLCAnMC41JywgJy1waCcsICc3LjUnLCAnLW50JywgJy1tYScsICcyMDAnLCAnLWltYWUnLCAnPGluZmlsZS5tYWU+JywgJy1vbWFlJywgJzxvdXRmaWxlLm1hZT4n

> <r_lp_tautomer_probability>
1

> <r_epik_Ionization_Penalty>
  0.0047

> <r_epik_Ionization_Penalty_Charging>
  0.0000

> <r_epik_Ionization_Penalty_Neutral>
  0.0047

> <r_epik_State_Penalty>
 -0.0000

> <r_epik_Charging_Adjusted_Penalty>
3.64357097057384e-07

> <i_epik_Tot_Q>
0

> <i_epik_Tot_abs_Q>
0

> <s_lp_Force_Field>
OPLS3e

> <r_lp_Energy>
86.503273

> <b_lp_Chiralities_Consistent>
1

> <s_lp_Variant>
sdf/inactives_sanitized.sdf:234-1

$$$$
sdf/inactives_sanitized.sdf:235
                    3D
 Schrodinger Suite 2020-1.
 41 44  0  0  1  0            999 V2000
    0.8545    3.2022   -1.1121 N   0  0  0  0  0  0
    0.2958    2.8168   -3.2032 C   0  0  0  0  0  0
    0.3039    2.9892   -4.5949 C   0  0  0  0  0  0
    1.9372    4.6384   -2.9202 C   0  0  0  0  0  0
    1.9226    4.7831   -4.3101 C   0  0  0  0  0  0
    1.1270    3.9811   -5.1318 C   0  0  0  0  0  0
    1.1114    3.6440   -2.3889 C   0  0  0  0  0  0
   -0.0576    2.1770   -1.2104 C   0  0  0  0  0  0
   -0.4127    1.9207   -2.4459 N   0  0  0  0  0  0
   -0.5549    1.4111    0.0009 C   0  0  0  0  0  0
   -0.0070   -0.0315    0.0785 C   0  0  0  0  0  0
    1.4515   -0.1273   -0.0121 N   0  0  0  0  0  0
    2.3197    0.2530    0.9455 C   0  0  0  0  0  0
    3.7927    0.1195    0.6177 C   0  0  0  0  0  0
    1.9530    0.6842    2.0410 O   0  0  0  0  0  0
    4.7432    0.2225    1.6432 C   0  0  0  0  0  0
    6.1028    0.1112    1.3666 C   0  0  0  0  0  0
    6.5340   -0.1014    0.0541 C   0  0  0  0  0  0
    5.5963   -0.2015   -0.9779 C   0  0  0  0  0  0
    4.2373   -0.0916   -0.6978 C   0  0  0  0  0  0
    7.9127   -0.2125   -0.2280 N   0  0  0  0  0  0
    8.9314   -0.6503    0.5905 C   0  0  0  0  0  0
   10.0953   -0.6194   -0.0087 N   0  0  0  0  0  0
    9.8708   -0.1377   -1.2943 N   0  0  0  0  0  0
    8.5850    0.0897   -1.3923 C   0  0  0  0  0  0
    1.1613    4.2190   -6.8409 Cl  0  0  0  0  0  0
    1.2394    3.5255   -0.2362 H   0  0  0  0  0  0
   -0.3081    2.3714   -5.2359 H   0  0  0  0  0  0
    2.5571    5.2656   -2.2968 H   0  0  0  0  0  0
    2.5479    5.5406   -4.7601 H   0  0  0  0  0  0
   -0.3080    1.9406    0.9223 H   0  0  0  0  0  0
   -1.6446    1.3708   -0.0104 H   0  0  0  0  0  0
   -0.3576   -0.5240    0.9876 H   0  0  0  0  0  0
   -0.4066   -0.6093   -0.7559 H   0  0  0  0  0  0
    1.8203   -0.4988   -0.8753 H   0  0  0  0  0  0
    4.4385    0.3894    2.6668 H   0  0  0  0  0  0
    6.8108    0.2000    2.1776 H   0  0  0  0  0  0
    5.9077   -0.3688   -1.9988 H   0  0  0  0  0  0
    3.5412   -0.1680   -1.5206 H   0  0  0  0  0  0
    8.7326   -0.9791    1.6000 H   0  0  0  0  0  0
    8.0601    0.4767   -2.2532 H   0  0  0  0  0  0
  1  7  1  0  0  0
  1  8  1  0  0  0
  1 27  1  0  0  0
  2  3  2  0  0  0
  2  7  1  0  0  0
  2  9  1  0  0  0
  3  6  1  0  0  0
  3 28  1  0  0  0
  4  7  2  0  0  0
  4  5  1  0  0  0
  4 29  1  0  0  0
  5  6  2  0  0  0
  5 30  1  0  0  0
  6 26  1  0  0  0
  8  9  2  0  0  0
  8 10  1  0  0  0
 10 11  1  0  0  0
 10 31  1  0  0  0
 10 32  1  0  0  0
 11 12  1  0  0  0
 11 33  1  0  0  0
 11 34  1  0  0  0
 12 13  1  0  0  0
 12 35  1  0  0  0
 13 14  1  0  0  0
 13 15  2  0  0  0
 14 16  2  0  0  0
 14 20  1  0  0  0
 16 17  1  0  0  0
 16 36  1  0  0  0
 17 18  2  0  0  0
 17 37  1  0  0  0
 18 19  1  0  0  0
 18 21  1  0  0  0
 19 20  2  0  0  0
 19 38  1  0  0  0
 20 39  1  0  0  0
 21 22  1  0  0  0
 21 25  1  0  0  0
 22 23  2  0  0  0
 22 40  1  0  0  0
 23 24  1  0  0  0
 24 25  2  0  0  0
 25 41  1  0  0  0
M  END
> <chembl_id>
CHEMBL3423027

> <chembl_pref_name>
None

> <s_m_source_file>
sdf/inactives_sanitized.sdf

> <i_m_source_file_index>
235

> <i_lp_mmshare_version>
49012

> <i_m_ct_stereo_status>
1

> <i_f3d_flags>
0

> <s_epik_input>
W2NIXTFjKENsKVtjSF1bY0hdYyhjMTIpW25IXWMobjIpW0NIMl1bQ0gyXVtOSF1DKD1PKWMzW2NIXVtjSF1jKFtjSF1bY0hdMyktbjRbY0hdbm5bY0hdNA==

> <s_epik_cmdline>
J2VwaWtfcHl0aG9uJywgJy1waHQnLCAnMC41JywgJy1waCcsICc3LjUnLCAnLW50JywgJy1tYScsICcyMDAnLCAnLWltYWUnLCAnPGluZmlsZS5tYWU+JywgJy1vbWFlJywgJzxvdXRmaWxlLm1hZT4n

> <r_lp_tautomer_probability>
1

> <r_epik_Ionization_Penalty>
  0.0080

> <r_epik_Ionization_Penalty_Charging>
  0.0000

> <r_epik_Ionization_Penalty_Neutral>
  0.0080

> <r_epik_State_Penalty>
 -0.0000

> <r_epik_Charging_Adjusted_Penalty>
0

> <i_epik_Tot_Q>
0

> <i_epik_Tot_abs_Q>
0

> <s_lp_Force_Field>
OPLS3e

> <r_lp_Energy>
21.554652

> <b_lp_Chiralities_Consistent>
1

> <s_lp_Variant>
sdf/inactives_sanitized.sdf:235-1

$$$$
sdf/inactives_sanitized.sdf:236
                    3D
 Schrodinger Suite 2020-1.
 41 44  0  0  1  0            999 V2000
    0.1204    3.6760   -1.2898 N   0  0  0  0  0  0
    0.7429    2.7402   -3.1788 C   0  0  0  0  0  0
    1.1883    2.6841   -4.5075 C   0  0  0  0  0  0
    0.7847    5.2078   -3.2188 C   0  0  0  0  0  0
    1.2279    5.1172   -4.5414 C   0  0  0  0  0  0
    1.4261    3.8880   -5.1728 C   0  0  0  0  0  0
    0.5487    3.9995   -2.5562 C   0  0  0  0  0  0
    0.0864    2.3033   -1.2032 C   0  0  0  0  0  0
    0.4426    1.7144   -2.3216 N   0  0  0  0  0  0
   -0.3544    1.5941    0.0697 C   0  0  0  0  0  0
    0.0989    0.1200    0.1901 C   0  0  0  0  0  0
    1.5469   -0.0639    0.0859 N   0  0  0  0  0  0
    2.4397    0.2045    1.0579 C   0  0  0  0  0  0
    3.8987    0.0153    0.7015 C   0  0  0  0  0  0
    2.1073    0.5734    2.1866 O   0  0  0  0  0  0
    4.8518   -0.1107    1.7214 C   0  0  0  0  0  0
    6.2001   -0.2757    1.4168 C   0  0  0  0  0  0
    6.6156   -0.3106    0.0825 C   0  0  0  0  0  0
    5.6747   -0.1811   -0.9430 C   0  0  0  0  0  0
    4.3270   -0.0194   -0.6352 C   0  0  0  0  0  0
    7.9826   -0.4733   -0.2288 N   0  0  0  0  0  0
    8.9632   -1.1204    0.4910 C   0  0  0  0  0  0
   10.1273   -1.0737   -0.1068 N   0  0  0  0  0  0
    9.9427   -0.3619   -1.2878 N   0  0  0  0  0  0
    8.6779   -0.0257   -1.3312 C   0  0  0  0  0  0
   -0.1268    4.2889   -0.5263 H   0  0  0  0  0  0
    1.3444    1.7383   -5.0056 H   0  0  0  0  0  0
    0.6354    6.1650   -2.7414 H   0  0  0  0  0  0
    1.4229    6.0257   -5.0925 H   0  0  0  0  0  0
    1.7702    3.8690   -6.1966 H   0  0  0  0  0  0
    0.0077    2.1363    0.9445 H   0  0  0  0  0  0
   -1.4414    1.6305    0.1464 H   0  0  0  0  0  0
   -0.2719   -0.3165    1.1195 H   0  0  0  0  0  0
   -0.3516   -0.4611   -0.6158 H   0  0  0  0  0  0
    1.8896   -0.3958   -0.8038 H   0  0  0  0  0  0
    4.5569   -0.0839    2.7610 H   0  0  0  0  0  0
    6.9122   -0.3664    2.2243 H   0  0  0  0  0  0
    5.9746   -0.2085   -1.9805 H   0  0  0  0  0  0
    3.6265    0.0861   -1.4513 H   0  0  0  0  0  0
    8.7371   -1.6024    1.4307 H   0  0  0  0  0  0
    8.1849    0.5421   -2.1067 H   0  0  0  0  0  0
  1  7  1  0  0  0
  1  8  1  0  0  0
  1 26  1  0  0  0
  2  3  2  0  0  0
  2  7  1  0  0  0
  2  9  1  0  0  0
  3  6  1  0  0  0
  3 27  1  0  0  0
  4  7  2  0  0  0
  4  5  1  0  0  0
  4 28  1  0  0  0
  5  6  2  0  0  0
  5 29  1  0  0  0
  6 30  1  0  0  0
  8  9  2  0  0  0
  8 10  1  0  0  0
 10 11  1  0  0  0
 10 31  1  0  0  0
 10 32  1  0  0  0
 11 12  1  0  0  0
 11 33  1  0  0  0
 11 34  1  0  0  0
 12 13  1  0  0  0
 12 35  1  0  0  0
 13 14  1  0  0  0
 13 15  2  0  0  0
 14 16  2  0  0  0
 14 20  1  0  0  0
 16 17  1  0  0  0
 16 36  1  0  0  0
 17 18  2  0  0  0
 17 37  1  0  0  0
 18 19  1  0  0  0
 18 21  1  0  0  0
 19 20  2  0  0  0
 19 38  1  0  0  0
 20 39  1  0  0  0
 21 22  1  0  0  0
 21 25  1  0  0  0
 22 23  2  0  0  0
 22 40  1  0  0  0
 23 24  1  0  0  0
 24 25  2  0  0  0
 25 41  1  0  0  0
M  END
> <chembl_id>
CHEMBL3423025

> <chembl_pref_name>
None

> <s_m_source_file>
sdf/inactives_sanitized.sdf

> <i_m_source_file_index>
236

> <i_lp_mmshare_version>
49012

> <i_m_ct_stereo_status>
1

> <i_f3d_flags>
0

> <s_epik_input>
W2NIXTFbY0hdW2NIXVtjSF1jKGMxMilbbkhdYyhuMilbQ0gyXVtDSDJdW05IXUMoPU8pYzNbY0hdW2NIXWMoW2NIXVtjSF0zKS1uNFtjSF1ubltjSF00

> <s_epik_cmdline>
J2VwaWtfcHl0aG9uJywgJy1waHQnLCAnMC41JywgJy1waCcsICc3LjUnLCAnLW50JywgJy1tYScsICcyMDAnLCAnLWltYWUnLCAnPGluZmlsZS5tYWU+JywgJy1vbWFlJywgJzxvdXRmaWxlLm1hZT4n

> <r_lp_tautomer_probability>
1

> <r_epik_Ionization_Penalty>
  0.0138

> <r_epik_Ionization_Penalty_Charging>
  0.0000

> <r_epik_Ionization_Penalty_Neutral>
  0.0138

> <r_epik_State_Penalty>
  0.0107

> <r_epik_Charging_Adjusted_Penalty>
0.0107233699098537

> <i_epik_Tot_Q>
0

> <i_epik_Tot_abs_Q>
0

> <s_lp_Force_Field>
OPLS3e

> <r_lp_Energy>
22.896746

> <b_lp_Chiralities_Consistent>
1

> <s_lp_Variant>
sdf/inactives_sanitized.sdf:236-1

$$$$
sdf/inactives_sanitized.sdf:237
                    3D
 Schrodinger Suite 2020-1.
 47 50  0  0  1  0            999 V2000
   -0.6438   -1.8636    5.7200 C   0  0  0  0  0  0
   -0.4563   -0.7106    6.4777 C   0  0  0  0  0  0
   -0.2845    0.5216    5.8487 C   0  0  0  0  0  0
   -0.6632   -1.8140    4.3240 C   0  0  0  0  0  0
   -0.4918   -0.5765    3.6701 C   0  0  0  0  0  0
   -0.3058    0.5661    4.4723 N   0  0  0  0  0  0
   -0.1606    1.6868    3.7237 N   0  0  0  0  0  0
   -0.4483   -0.0884    2.3377 C   0  0  0  0  0  0
   -0.2449    1.2958    2.4708 C   0  0  0  0  0  0
   -0.1339    2.2451    1.2822 C   0  0  0  0  0  0
   -0.6727    1.5101    0.0304 C   0  0  0  0  0  0
   -0.0415    0.0948   -0.1520 C   0  0  1  0  0  0
   -0.6161   -0.7961    0.9924 C   0  0  0  0  0  0
   -0.4829   -0.5186   -1.5066 C   0  0  0  0  0  0
    1.4345    0.0727   -0.1008 N   0  0  0  0  0  0
    2.3119    0.7343   -0.8840 C   0  0  0  0  0  0
    3.7662    0.5052   -0.5570 C   0  0  0  0  0  0
    1.9832    1.4911   -1.7985 O   0  0  0  0  0  0
   -0.8462   -2.9599    3.5944 O   0  0  0  0  0  0
    4.2280   -0.7811   -0.2366 C   0  0  0  0  0  0
    5.5682   -0.9994    0.0808 C   0  0  0  0  0  0
    6.4688    0.0674    0.0874 C   0  0  0  0  0  0
    6.0193    1.3529   -0.2229 C   0  0  0  0  0  0
    4.6780    1.5751   -0.5402 C   0  0  0  0  0  0
    4.2804    2.8402   -0.8196 F   0  0  0  0  0  0
    7.8677   -0.1591    0.4193 C   0  0  0  0  0  0
    8.9798   -0.3397    0.6831 N   0  0  0  0  0  0
   -0.0781    1.7992    6.6495 C   0  0  0  0  0  0
   -0.7761   -2.8090    6.2263 H   0  0  0  0  0  0
   -0.4462   -0.7789    7.5559 H   0  0  0  0  0  0
   -0.7009    3.1618    1.4479 H   0  0  0  0  0  0
    0.9050    2.5385    1.1278 H   0  0  0  0  0  0
   -1.7625    1.4499    0.0533 H   0  0  0  0  0  0
   -0.4305    2.1354   -0.8299 H   0  0  0  0  0  0
   -0.1192   -1.7677    1.0024 H   0  0  0  0  0  0
   -1.6750   -1.0044    0.8308 H   0  0  0  0  0  0
   -1.5691   -0.5932   -1.5734 H   0  0  0  0  0  0
   -0.0819   -1.5241   -1.6430 H   0  0  0  0  0  0
   -0.1597    0.0804   -2.3581 H   0  0  0  0  0  0
    1.8201   -0.4782    0.6520 H   0  0  0  0  0  0
   -0.9470   -3.7431    4.1404 H   0  0  0  0  0  0
    3.5529   -1.6252   -0.2366 H   0  0  0  0  0  0
    5.8958   -2.0016    0.3201 H   0  0  0  0  0  0
    6.7031    2.1904   -0.2174 H   0  0  0  0  0  0
   -0.0929    1.6093    7.7233 H   0  0  0  0  0  0
   -0.8644    2.5203    6.4240 H   0  0  0  0  0  0
    0.8817    2.2529    6.4002 H   0  0  0  0  0  0
  1  2  1  0  0  0
  1  4  2  0  0  0
  1 29  1  0  0  0
  2  3  2  0  0  0
  2 30  1  0  0  0
  3  6  1  0  0  0
  3 28  1  0  0  0
  4  5  1  0  0  0
  4 19  1  0  0  0
  5  6  1  0  0  0
  5  8  2  0  0  0
  6  7  1  0  0  0
  7  9  2  0  0  0
  8  9  1  0  0  0
  8 13  1  0  0  0
  9 10  1  0  0  0
 10 11  1  0  0  0
 10 31  1  0  0  0
 10 32  1  0  0  0
 11 12  1  0  0  0
 11 33  1  0  0  0
 11 34  1  0  0  0
 12 13  1  0  0  0
 12 14  1  0  0  0
 12 15  1  0  0  0
 13 35  1  0  0  0
 13 36  1  0  0  0
 14 37  1  0  0  0
 14 38  1  0  0  0
 14 39  1  0  0  0
 15 16  1  0  0  0
 15 40  1  0  0  0
 16 17  1  0  0  0
 16 18  2  0  0  0
 17 20  2  0  0  0
 17 24  1  0  0  0
 19 41  1  0  0  0
 20 21  1  0  0  0
 20 42  1  0  0  0
 21 22  2  0  0  0
 21 43  1  0  0  0
 22 23  1  0  0  0
 22 26  1  0  0  0
 23 24  2  0  0  0
 23 44  1  0  0  0
 24 25  1  0  0  0
 26 27  3  0  0  0
 28 45  1  0  0  0
 28 46  1  0  0  0
 28 47  1  0  0  0
M  END
> <chembl_id>
CHEMBL3423046

> <chembl_pref_name>
None

> <s_m_source_file>
sdf/inactives_sanitized.sdf

> <i_m_source_file_index>
237

> <i_lp_mmshare_version>
49012

> <i_m_ct_stereo_status>
1

> <i_f3d_flags>
0

> <s_epik_input>
W09IXWMxW2NIXVtjSF1jKFtDSDNdKW4oYzEyKW5jM2MyW0NIMl1bQ0BAXShbQ0gzXSkoW0NIMl1bQ0gyXTMpW05IXUMoPU8pYzRbY0hdW2NIXWMoQyNOKVtjSF1jNEY=

> <s_epik_cmdline>
J2VwaWtfcHl0aG9uJywgJy1waHQnLCAnMC41JywgJy1waCcsICc3LjUnLCAnLW50JywgJy1tYScsICcyMDAnLCAnLWltYWUnLCAnPGluZmlsZS5tYWU+JywgJy1vbWFlJywgJzxvdXRmaWxlLm1hZT4n

> <r_epik_Ionization_Penalty>
  0.0172

> <r_epik_Ionization_Penalty_Charging>
  0.0000

> <r_epik_Ionization_Penalty_Neutral>
  0.0172

> <r_epik_State_Penalty>
  0.0136

> <r_epik_Charging_Adjusted_Penalty>
0.0135721177526746

> <i_epik_Tot_Q>
0

> <i_epik_Tot_abs_Q>
0

> <s_lp_Force_Field>
OPLS3e

> <r_lp_Energy>
27.069118

> <b_lp_Chiralities_Consistent>
1

> <s_lp_Variant>
sdf/inactives_sanitized.sdf:237-1

$$$$
sdf/inactives_sanitized.sdf:238
                    3D
 Schrodinger Suite 2020-1.
 47 50  0  0  1  0            999 V2000
   -0.4726    2.1845    1.3097 N   0  0  0  0  0  0
   -1.4086    3.1670   -0.4171 C   0  0  0  0  0  0
   -2.0317    4.1961   -1.1334 C   0  0  0  0  0  0
   -1.3031    4.5755    1.6011 C   0  0  0  0  0  0
   -1.9278    5.5926    0.8666 C   0  0  0  0  0  0
   -2.2885    5.4082   -0.4825 C   0  0  0  0  0  0
   -1.0539    3.3738    0.9366 C   0  0  0  0  0  0
   -0.5031    1.3542    0.2136 C   0  0  0  0  0  0
   -1.0588    1.9097   -0.8356 N   0  0  0  0  0  0
    0.0993   -0.0376    0.2276 C   0  0  0  0  0  0
    1.6400   -0.0482    0.1167 C   0  0  0  0  0  0
    2.1515    0.5552   -1.1166 N   0  0  0  0  0  0
    2.5088    1.8444   -1.2779 C   0  0  0  0  0  0
    2.9439    2.2682   -2.6674 C   0  0  0  0  0  0
    2.4510    2.6684   -0.3620 O   0  0  0  0  0  0
    2.8778    3.6278   -3.0119 C   0  0  0  0  0  0
    3.2684    4.0737   -4.2730 C   0  0  0  0  0  0
    3.7445    3.1665   -5.2240 C   0  0  0  0  0  0
    3.8261    1.8104   -4.8922 C   0  0  0  0  0  0
    3.4365    1.3607   -3.6298 C   0  0  0  0  0  0
    4.1424    3.6141   -6.5023 N   0  0  0  0  0  0
    4.6129    4.8538   -6.8776 C   0  0  0  0  0  0
    4.8884    4.9119   -8.1565 N   0  0  0  0  0  0
    4.5940    3.6599   -8.6868 N   0  0  0  0  0  0
    4.1613    2.9230   -7.6945 C   0  0  0  0  0  0
   -2.9650    6.5219   -1.2719 C   0  0  0  0  0  0
   -2.2096    6.9130    1.5725 C   0  0  0  0  0  0
    3.5657    0.0381   -3.3666 F   0  0  0  0  0  0
   -0.0728    1.9228    2.1990 H   0  0  0  0  0  0
   -2.3063    4.0534   -2.1686 H   0  0  0  0  0  0
   -1.0244    4.7154    2.6353 H   0  0  0  0  0  0
   -0.1914   -0.5551    1.1426 H   0  0  0  0  0  0
   -0.3177   -0.6435   -0.5783 H   0  0  0  0  0  0
    2.0769    0.4469    0.9869 H   0  0  0  0  0  0
    1.9958   -1.0783    0.1515 H   0  0  0  0  0  0
    2.2620   -0.0692   -1.9025 H   0  0  0  0  0  0
    2.5100    4.3586   -2.3048 H   0  0  0  0  0  0
    3.1891    5.1269   -4.5008 H   0  0  0  0  0  0
    4.2043    1.0920   -5.6052 H   0  0  0  0  0  0
    4.7304    5.6471   -6.1542 H   0  0  0  0  0  0
    3.8358    1.8943   -7.7473 H   0  0  0  0  0  0
   -3.9163    6.7896   -0.8113 H   0  0  0  0  0  0
   -3.1572    6.2400   -2.3081 H   0  0  0  0  0  0
   -2.3399    7.4153   -1.2792 H   0  0  0  0  0  0
   -1.6791    7.7278    1.0786 H   0  0  0  0  0  0
   -1.9082    6.8978    2.6210 H   0  0  0  0  0  0
   -3.2748    7.1432    1.5350 H   0  0  0  0  0  0
  1  7  1  0  0  0
  1  8  1  0  0  0
  1 29  1  0  0  0
  2  3  2  0  0  0
  2  7  1  0  0  0
  2  9  1  0  0  0
  3  6  1  0  0  0
  3 30  1  0  0  0
  4  7  2  0  0  0
  4  5  1  0  0  0
  4 31  1  0  0  0
  5  6  2  0  0  0
  5 27  1  0  0  0
  6 26  1  0  0  0
  8  9  2  0  0  0
  8 10  1  0  0  0
 10 11  1  0  0  0
 10 32  1  0  0  0
 10 33  1  0  0  0
 11 12  1  0  0  0
 11 34  1  0  0  0
 11 35  1  0  0  0
 12 13  1  0  0  0
 12 36  1  0  0  0
 13 14  1  0  0  0
 13 15  2  0  0  0
 14 16  2  0  0  0
 14 20  1  0  0  0
 16 17  1  0  0  0
 16 37  1  0  0  0
 17 18  2  0  0  0
 17 38  1  0  0  0
 18 19  1  0  0  0
 18 21  1  0  0  0
 19 20  2  0  0  0
 19 39  1  0  0  0
 20 28  1  0  0  0
 21 22  1  0  0  0
 21 25  1  0  0  0
 22 23  2  0  0  0
 22 40  1  0  0  0
 23 24  1  0  0  0
 24 25  2  0  0  0
 25 41  1  0  0  0
 26 42  1  0  0  0
 26 43  1  0  0  0
 26 44  1  0  0  0
 27 45  1  0  0  0
 27 46  1  0  0  0
 27 47  1  0  0  0
M  END
> <chembl_id>
CHEMBL3423037

> <chembl_pref_name>
None

> <s_m_source_file>
sdf/inactives_sanitized.sdf

> <i_m_source_file_index>
238

> <i_lp_mmshare_version>
49012

> <i_m_ct_stereo_status>
1

> <i_f3d_flags>
0

> <s_epik_input>
W2NIXTFjKFtDSDNdKWMoW0NIM10pW2NIXWMoYzEyKVtuSF1jKG4yKVtDSDJdW0NIMl1bTkhdQyg9TyljM1tjSF1bY0hdYyhbY0hdYzNGKS1uNFtjSF1ubltjSF00

> <s_epik_cmdline>
J2VwaWtfcHl0aG9uJywgJy1waHQnLCAnMC41JywgJy1waCcsICc3LjUnLCAnLW50JywgJy1tYScsICcyMDAnLCAnLWltYWUnLCAnPGluZmlsZS5tYWU+JywgJy1vbWFlJywgJzxvdXRmaWxlLm1hZT4n

> <r_lp_tautomer_probability>
1

> <r_epik_Ionization_Penalty>
  0.0235

> <r_epik_Ionization_Penalty_Charging>
  0.0000

> <r_epik_Ionization_Penalty_Neutral>
  0.0235

> <r_epik_State_Penalty>
  0.0190

> <r_epik_Charging_Adjusted_Penalty>
0.0189995681741242

> <i_epik_Tot_Q>
0

> <i_epik_Tot_abs_Q>
0

> <s_lp_Force_Field>
OPLS3e

> <r_lp_Energy>
20.629351

> <b_lp_Chiralities_Consistent>
1

> <s_lp_Variant>
sdf/inactives_sanitized.sdf:238-1

$$$$
sdf/inactives_sanitized.sdf:239
                    3D
 Schrodinger Suite 2020-1.
 75 79  0  0  1  0            999 V2000
  -11.1469   -4.3995   -2.6291 C   0  0  0  0  0  0
   -9.8081   -4.4710   -2.1580 O   0  0  0  0  0  0
   -8.8535   -3.6645   -2.6642 C   0  0  0  0  0  0
   -9.0483   -2.8225   -3.5437 O   0  0  0  0  0  0
   -7.6487   -3.9659   -2.0367 N   0  0  0  0  0  0
   -6.3849   -3.3765   -2.2066 C   0  0  0  0  0  0
   -5.3072   -4.0370   -1.6158 C   0  0  0  0  0  0
   -4.0153   -3.5311   -1.7379 C   0  0  0  0  0  0
   -3.7659   -2.3530   -2.4497 C   0  0  0  0  0  0
   -4.8596   -1.6613   -3.0159 C   0  0  0  0  0  0
   -4.7205   -0.4721   -3.7505 N   0  0  0  0  0  0
   -4.4172    0.7635   -3.2899 C   0  0  0  0  0  0
   -4.3956    1.7077   -4.0787 O   0  0  0  0  0  0
   -4.0946    1.0385   -1.7965 C   0  0  2  0  0  0
   -5.2067    1.8809   -1.1389 C   0  0  0  0  0  0
   -2.6960    1.7080   -1.6466 C   0  0  0  0  0  0
   -2.0770    1.6311   -0.2251 C   0  0  0  0  0  0
   -0.5292    1.4971   -0.1967 C   0  0  0  0  0  0
    0.0299    0.0394   -0.2807 C   0  0  2  0  0  0
    1.5073   -0.0407   -0.1548 N   0  0  0  0  0  0
    2.3611    0.9846   -0.8211 C   0  0  0  0  0  0
    3.7806    0.4665   -1.1777 C   0  0  0  0  0  0
    4.3569   -0.3141   -0.0042 C   0  0  0  0  0  0
    3.4893   -1.0246    0.7487 C   0  0  0  0  0  0
    2.0577   -1.0841    0.5463 C   0  0  0  0  0  0
    1.4118   -2.0369    0.9868 O   0  0  0  0  0  0
    5.8338   -0.4289    0.1770 C   0  0  0  0  0  0
    6.3967   -0.7991    1.4075 C   0  0  0  0  0  0
    7.7747   -0.9305    1.5523 C   0  0  0  0  0  0
    8.6267   -0.7063    0.4728 C   0  0  0  0  0  0
    9.9787   -0.8676    0.7076 O   0  0  0  0  0  0
   10.8972   -0.6730   -0.3625 C   0  0  0  0  0  0
    8.0754   -0.3411   -0.7632 C   0  0  0  0  0  0
    6.6970   -0.2081   -0.9052 C   0  0  0  0  0  0
   -0.5195   -0.7196   -1.4918 C   0  0  0  0  0  0
   -1.7359   -1.3952   -1.3792 C   0  0  0  0  0  0
   -2.3728   -1.8496   -2.5364 C   0  0  0  0  0  0
   -1.7011   -1.7331   -3.7596 C   0  0  0  0  0  0
   -0.4399   -1.1336   -3.7812 C   0  0  0  0  0  0
    0.1471   -0.6111   -2.6743 N   0  0  0  0  0  0
   -6.1531   -2.1824   -2.9061 C   0  0  0  0  0  0
  -11.7676   -5.1152   -2.0902 H   0  0  0  0  0  0
  -11.2001   -4.6368   -3.6926 H   0  0  0  0  0  0
  -11.5648   -3.4035   -2.4742 H   0  0  0  0  0  0
   -7.6807   -4.7219   -1.3686 H   0  0  0  0  0  0
   -5.4611   -4.9528   -1.0627 H   0  0  0  0  0  0
   -3.1977   -4.0663   -1.2764 H   0  0  0  0  0  0
   -4.9928   -0.5344   -4.7207 H   0  0  0  0  0  0
   -4.0730    0.0912   -1.2625 H   0  0  0  0  0  0
   -6.1791    1.3939   -1.2250 H   0  0  0  0  0  0
   -5.2930    2.8677   -1.5967 H   0  0  0  0  0  0
   -5.0138    2.0266   -0.0756 H   0  0  0  0  0  0
   -2.0067    1.2580   -2.3601 H   0  0  0  0  0  0
   -2.7465    2.7523   -1.9602 H   0  0  0  0  0  0
   -2.3663    2.5325    0.3169 H   0  0  0  0  0  0
   -2.5142    0.8118    0.3466 H   0  0  0  0  0  0
   -0.1072    2.1283   -0.9790 H   0  0  0  0  0  0
   -0.1786    1.9281    0.7424 H   0  0  0  0  0  0
   -0.3892   -0.4600    0.5955 H   0  0  0  0  0  0
    1.8535    1.4672   -1.6560 H   0  0  0  0  0  0
    2.4961    1.7721   -0.0784 H   0  0  0  0  0  0
    3.6932   -0.2012   -2.0362 H   0  0  0  0  0  0
    4.4172    1.3013   -1.4716 H   0  0  0  0  0  0
    3.8647   -1.6556    1.5402 H   0  0  0  0  0  0
    5.7767   -0.9742    2.2739 H   0  0  0  0  0  0
    8.1844   -1.2108    2.5119 H   0  0  0  0  0  0
   11.9113   -0.8496   -0.0035 H   0  0  0  0  0  0
   10.8554    0.3480   -0.7449 H   0  0  0  0  0  0
   10.7113   -1.3706   -1.1806 H   0  0  0  0  0  0
    8.6986   -0.1614   -1.6258 H   0  0  0  0  0  0
    6.3103    0.0579   -1.8777 H   0  0  0  0  0  0
   -2.2424   -1.4486   -0.4260 H   0  0  0  0  0  0
   -2.1559   -2.0804   -4.6759 H   0  0  0  0  0  0
    0.1028   -1.0267   -4.7088 H   0  0  0  0  0  0
   -6.9662   -1.6342   -3.3563 H   0  0  0  0  0  0
  1  2  1  0  0  0
  1 42  1  0  0  0
  1 43  1  0  0  0
  1 44  1  0  0  0
  2  3  1  0  0  0
  3  4  2  0  0  0
  3  5  1  0  0  0
  5  6  1  0  0  0
  5 45  1  0  0  0
  6  7  2  0  0  0
  6 41  1  0  0  0
  7  8  1  0  0  0
  7 46  1  0  0  0
  8  9  2  0  0  0
  8 47  1  0  0  0
  9 10  1  0  0  0
  9 37  1  0  0  0
 10 11  1  0  0  0
 10 41  2  0  0  0
 11 12  1  0  0  0
 11 48  1  0  0  0
 12 13  2  0  0  0
 12 14  1  0  0  0
 14 15  1  0  0  0
 14 16  1  0  0  0
 14 49  1  0  0  0
 15 50  1  0  0  0
 15 51  1  0  0  0
 15 52  1  0  0  0
 16 17  1  0  0  0
 16 53  1  0  0  0
 16 54  1  0  0  0
 17 18  1  0  0  0
 17 55  1  0  0  0
 17 56  1  0  0  0
 18 19  1  0  0  0
 18 57  1  0  0  0
 18 58  1  0  0  0
 19 20  1  0  0  0
 19 35  1  0  0  0
 19 59  1  0  0  0
 20 21  1  0  0  0
 20 25  1  0  0  0
 21 22  1  0  0  0
 21 60  1  0  0  0
 21 61  1  0  0  0
 22 23  1  0  0  0
 22 62  1  0  0  0
 22 63  1  0  0  0
 23 24  2  0  0  0
 23 27  1  0  0  0
 24 25  1  0  0  0
 24 64  1  0  0  0
 25 26  2  0  0  0
 27 28  2  0  0  0
 27 34  1  0  0  0
 28 29  1  0  0  0
 28 65  1  0  0  0
 29 30  2  0  0  0
 29 66  1  0  0  0
 30 31  1  0  0  0
 30 33  1  0  0  0
 31 32  1  0  0  0
 32 67  1  0  0  0
 32 68  1  0  0  0
 32 69  1  0  0  0
 33 34  2  0  0  0
 33 70  1  0  0  0
 34 71  1  0  0  0
 35 36  1  0  0  0
 35 40  2  0  0  0
 36 37  2  0  0  0
 36 72  1  0  0  0
 37 38  1  0  0  0
 38 39  2  0  0  0
 38 73  1  0  0  0
 39 40  1  0  0  0
 39 74  1  0  0  0
 41 75  1  0  0  0
M  END
> <chembl_id>
CHEMBL4107783

> <chembl_pref_name>
None

> <i_m_ct_stereo_status>
1

> <s_m_source_file>
sdf/inactives_sanitized.sdf

> <i_m_source_file_index>
239

> <i_lp_mmshare_version>
49012

> <i_f3d_flags>
0

> <s_epik_input>
W0NIM11PQyg9TylbTkhdYyhbY0hdW2NIXTEpW2NIXWMoYzEyKVtOSF1DKD1PKVtDQEhdKFtDSDNdKVtDSDJdW0NIMl1bQ0gyXVtDQEBIXShjM1tjSF1jMltjSF1bY0hdbjMpTjRbQ0gyXVtDSDJdQyg9W0NIXUM0PU8pYzVbY0hdW2NIXWMoT1tDSDNdKVtjSF1bY0hdNQ==

> <s_epik_cmdline>
J2VwaWtfcHl0aG9uJywgJy1waHQnLCAnMC41JywgJy1waCcsICc3LjUnLCAnLW50JywgJy1tYScsICcyMDAnLCAnLWltYWUnLCAnPGluZmlsZS5tYWU+JywgJy1vbWFlJywgJzxvdXRmaWxlLm1hZT4n

> <r_lp_tautomer_probability>
1

> <r_epik_Ionization_Penalty>
  0.0001

> <r_epik_Ionization_Penalty_Charging>
  0.0000

> <r_epik_Ionization_Penalty_Neutral>
  0.0001

> <r_epik_State_Penalty>
 -0.0000

> <r_epik_Charging_Adjusted_Penalty>
0

> <i_epik_Tot_Q>
0

> <i_epik_Tot_abs_Q>
0

> <s_epik_Chemistry_Notes>
This compound has an ester and may undergo hydrolysis at high or low pH.

> <s_lp_Force_Field>
OPLS3e

> <r_lp_Energy>
98.001195

> <b_lp_Chiralities_Consistent>
1

> <s_lp_Variant>
sdf/inactives_sanitized.sdf:239-1

$$$$
sdf/inactives_sanitized.sdf:240
                    3D
 Schrodinger Suite 2020-1.
 75 79  0  0  1  0            999 V2000
  -11.0611   -4.4796   -2.7610 C   0  0  0  0  0  0
   -9.7241   -4.5463   -2.2842 O   0  0  0  0  0  0
   -8.7843   -3.6927   -2.7386 C   0  0  0  0  0  0
   -8.9950   -2.8039   -3.5669 O   0  0  0  0  0  0
   -7.5744   -4.0077   -2.1273 N   0  0  0  0  0  0
   -6.3186   -3.3929   -2.2663 C   0  0  0  0  0  0
   -5.2339   -4.0577   -1.6929 C   0  0  0  0  0  0
   -3.9481   -3.5313   -1.7935 C   0  0  0  0  0  0
   -3.7114   -2.3281   -2.4664 C   0  0  0  0  0  0
   -4.8128   -1.6320   -3.0128 C   0  0  0  0  0  0
   -4.6892   -0.4206   -3.7130 N   0  0  0  0  0  0
   -4.3978    0.8047   -3.2189 C   0  0  0  0  0  0
   -4.3976    1.7722   -3.9792 O   0  0  0  0  0  0
   -4.0617    1.0399   -1.7219 C   0  0  2  0  0  0
   -5.1744    1.8524   -1.0284 C   0  0  0  0  0  0
   -2.6678    1.7184   -1.5711 C   0  0  0  0  0  0
   -2.0368    1.6225   -0.1564 C   0  0  0  0  0  0
   -0.4884    1.4972   -0.1424 C   0  0  0  0  0  0
    0.0791    0.0450   -0.2566 C   0  0  2  0  0  0
    1.5579   -0.0197   -0.1376 N   0  0  0  0  0  0
    2.3974    1.0058   -0.8262 C   0  0  0  0  0  0
    3.8281    0.5033   -1.1632 C   0  0  0  0  0  0
    4.3989   -0.2230    0.0418 C   0  0  0  0  0  0
    3.5512   -0.9449    0.8014 C   0  0  0  0  0  0
    2.1224   -1.0365    0.5930 C   0  0  0  0  0  0
    1.4916   -1.9884    1.0563 O   0  0  0  0  0  0
    5.8674   -0.3033    0.2414 C   0  0  0  0  0  0
    6.6809   -0.5887   -0.8638 C   0  0  0  0  0  0
    8.0623   -0.6972   -0.7281 C   0  0  0  0  0  0
    8.6518   -0.5227    0.5191 C   0  0  0  0  0  0
    7.8600   -0.2369    1.6285 C   0  0  0  0  0  0
    6.4627   -0.1217    1.5077 C   0  0  0  0  0  0
    5.6355    0.1853    2.5754 O   0  0  0  0  0  0
    6.1962    0.3907    3.8675 C   0  0  0  0  0  0
   -0.4700   -0.6941   -1.4807 C   0  0  0  0  0  0
   -1.6822   -1.3801   -1.3781 C   0  0  0  0  0  0
   -2.3226   -1.8105   -2.5432 C   0  0  0  0  0  0
   -1.6582   -1.6598   -3.7664 C   0  0  0  0  0  0
   -0.4010   -1.0526   -3.7800 C   0  0  0  0  0  0
    0.1889   -0.5537   -2.6639 N   0  0  0  0  0  0
   -6.0997   -2.1730   -2.9241 C   0  0  0  0  0  0
  -11.6676   -5.2397   -2.2686 H   0  0  0  0  0  0
  -11.1019   -4.6574   -3.8366 H   0  0  0  0  0  0
  -11.5045   -3.5046   -2.5534 H   0  0  0  0  0  0
   -7.5944   -4.7996   -1.5017 H   0  0  0  0  0  0
   -5.3772   -4.9943   -1.1725 H   0  0  0  0  0  0
   -3.1245   -4.0722   -1.3495 H   0  0  0  0  0  0
   -4.9705   -0.4572   -4.6818 H   0  0  0  0  0  0
   -4.0254    0.0786   -1.2147 H   0  0  0  0  0  0
   -6.1420    1.3554   -1.1129 H   0  0  0  0  0  0
   -5.2787    2.8489   -1.4607 H   0  0  0  0  0  0
   -4.9686    1.9744    0.0355 H   0  0  0  0  0  0
   -1.9803    1.2867   -2.2977 H   0  0  0  0  0  0
   -2.7299    2.7675   -1.8660 H   0  0  0  0  0  0
   -2.3261    2.5141    0.4017 H   0  0  0  0  0  0
   -2.4647    0.7919    0.4062 H   0  0  0  0  0  0
   -0.0744    2.1443   -0.9163 H   0  0  0  0  0  0
   -0.1334    1.9130    0.8018 H   0  0  0  0  0  0
   -0.3350   -0.4754    0.6096 H   0  0  0  0  0  0
    1.8825    1.4627   -1.6712 H   0  0  0  0  0  0
    2.5182    1.8111   -0.1004 H   0  0  0  0  0  0
    3.7532   -0.1959   -1.9972 H   0  0  0  0  0  0
    4.4654    1.3300   -1.4788 H   0  0  0  0  0  0
    3.9525   -1.5380    1.6110 H   0  0  0  0  0  0
    6.2428   -0.7385   -1.8402 H   0  0  0  0  0  0
    8.6744   -0.9203   -1.5895 H   0  0  0  0  0  0
    9.7232   -0.6070    0.6269 H   0  0  0  0  0  0
    8.3544   -0.1033    2.5785 H   0  0  0  0  0  0
    5.3978    0.6189    4.5733 H   0  0  0  0  0  0
    6.8904    1.2323    3.8723 H   0  0  0  0  0  0
    6.7098   -0.5019    4.2276 H   0  0  0  0  0  0
   -2.1835   -1.4594   -0.4240 H   0  0  0  0  0  0
   -2.1153   -1.9876   -4.6886 H   0  0  0  0  0  0
    0.1352   -0.9201   -4.7079 H   0  0  0  0  0  0
   -6.9173   -1.6212   -3.3612 H   0  0  0  0  0  0
  1  2  1  0  0  0
  1 42  1  0  0  0
  1 43  1  0  0  0
  1 44  1  0  0  0
  2  3  1  0  0  0
  3  4  2  0  0  0
  3  5  1  0  0  0
  5  6  1  0  0  0
  5 45  1  0  0  0
  6  7  2  0  0  0
  6 41  1  0  0  0
  7  8  1  0  0  0
  7 46  1  0  0  0
  8  9  2  0  0  0
  8 47  1  0  0  0
  9 10  1  0  0  0
  9 37  1  0  0  0
 10 11  1  0  0  0
 10 41  2  0  0  0
 11 12  1  0  0  0
 11 48  1  0  0  0
 12 13  2  0  0  0
 12 14  1  0  0  0
 14 15  1  0  0  0
 14 16  1  0  0  0
 14 49  1  0  0  0
 15 50  1  0  0  0
 15 51  1  0  0  0
 15 52  1  0  0  0
 16 17  1  0  0  0
 16 53  1  0  0  0
 16 54  1  0  0  0
 17 18  1  0  0  0
 17 55  1  0  0  0
 17 56  1  0  0  0
 18 19  1  0  0  0
 18 57  1  0  0  0
 18 58  1  0  0  0
 19 20  1  0  0  0
 19 35  1  0  0  0
 19 59  1  0  0  0
 20 21  1  0  0  0
 20 25  1  0  0  0
 21 22  1  0  0  0
 21 60  1  0  0  0
 21 61  1  0  0  0
 22 23  1  0  0  0
 22 62  1  0  0  0
 22 63  1  0  0  0
 23 24  2  0  0  0
 23 27  1  0  0  0
 24 25  1  0  0  0
 24 64  1  0  0  0
 25 26  2  0  0  0
 27 28  2  0  0  0
 27 32  1  0  0  0
 28 29  1  0  0  0
 28 65  1  0  0  0
 29 30  2  0  0  0
 29 66  1  0  0  0
 30 31  1  0  0  0
 30 67  1  0  0  0
 31 32  2  0  0  0
 31 68  1  0  0  0
 32 33  1  0  0  0
 33 34  1  0  0  0
 34 69  1  0  0  0
 34 70  1  0  0  0
 34 71  1  0  0  0
 35 36  1  0  0  0
 35 40  2  0  0  0
 36 37  2  0  0  0
 36 72  1  0  0  0
 37 38  1  0  0  0
 38 39  2  0  0  0
 38 73  1  0  0  0
 39 40  1  0  0  0
 39 74  1  0  0  0
 41 75  1  0  0  0
M  END
> <chembl_id>
CHEMBL4108037

> <chembl_pref_name>
None

> <i_m_ct_stereo_status>
1

> <s_m_source_file>
sdf/inactives_sanitized.sdf

> <i_m_source_file_index>
240

> <i_lp_mmshare_version>
49012

> <i_f3d_flags>
0

> <s_epik_input>
W0NIM11PQyg9TylbTkhdYyhbY0hdW2NIXTEpW2NIXWMoYzEyKVtOSF1DKD1PKVtDQEhdKFtDSDNdKVtDSDJdW0NIMl1bQ0gyXVtDQEBIXShjM1tjSF1jMltjSF1bY0hdbjMpTjRbQ0gyXVtDSDJdQyg9W0NIXUM0PU8pYzVbY0hdW2NIXVtjSF1bY0hdYzVPW0NIM10=

> <s_epik_cmdline>
J2VwaWtfcHl0aG9uJywgJy1waHQnLCAnMC41JywgJy1waCcsICc3LjUnLCAnLW50JywgJy1tYScsICcyMDAnLCAnLWltYWUnLCAnPGluZmlsZS5tYWU+JywgJy1vbWFlJywgJzxvdXRmaWxlLm1hZT4n

> <r_lp_tautomer_probability>
1

> <r_epik_Ionization_Penalty>
  0.0001

> <r_epik_Ionization_Penalty_Charging>
  0.0000

> <r_epik_Ionization_Penalty_Neutral>
  0.0001

> <r_epik_State_Penalty>
 -0.0000

> <r_epik_Charging_Adjusted_Penalty>
0

> <i_epik_Tot_Q>
0

> <i_epik_Tot_abs_Q>
0

> <s_epik_Chemistry_Notes>
This compound has an ester and may undergo hydrolysis at high or low pH.

> <s_lp_Force_Field>
OPLS3e

> <r_lp_Energy>
100.170223

> <b_lp_Chiralities_Consistent>
1

> <s_lp_Variant>
sdf/inactives_sanitized.sdf:240-1

$$$$
sdf/inactives_sanitized.sdf:241
                    3D
 Schrodinger Suite 2020-1.
 75 79  0  0  1  0            999 V2000
  -11.1094   -4.4234   -2.6411 C   0  0  0  0  0  0
   -9.7715   -4.4927   -2.1671 O   0  0  0  0  0  0
   -8.8134   -3.6961   -2.6818 C   0  0  0  0  0  0
   -9.0035   -2.8664   -3.5740 O   0  0  0  0  0  0
   -7.6113   -3.9914   -2.0459 N   0  0  0  0  0  0
   -6.3463   -3.4047   -2.2163 C   0  0  0  0  0  0
   -5.2711   -4.0570   -1.6117 C   0  0  0  0  0  0
   -3.9792   -3.5493   -1.7293 C   0  0  0  0  0  0
   -3.7274   -2.3768   -2.4495 C   0  0  0  0  0  0
   -4.8188   -1.6954   -3.0326 C   0  0  0  0  0  0
   -4.6777   -0.5115   -3.7749 N   0  0  0  0  0  0
   -4.3927    0.7290   -3.3161 C   0  0  0  0  0  0
   -4.3684    1.6703   -4.1080 O   0  0  0  0  0  0
   -4.0928    1.0118   -1.8195 C   0  0  2  0  0  0
   -5.2213    1.8454   -1.1795 C   0  0  0  0  0  0
   -2.7024    1.6931   -1.6539 C   0  0  0  0  0  0
   -2.1014    1.6222   -0.2248 C   0  0  0  0  0  0
   -0.5529    1.5093   -0.1790 C   0  0  0  0  0  0
    0.0332    0.0616   -0.2639 C   0  0  2  0  0  0
    1.5122    0.0169   -0.1377 N   0  0  0  0  0  0
    2.3405    1.0529   -0.8206 C   0  0  0  0  0  0
    3.7751    0.5675   -1.1626 C   0  0  0  0  0  0
    4.3669   -0.1713    0.0300 C   0  0  0  0  0  0
    3.5166   -0.8934    0.7915 C   0  0  0  0  0  0
    2.0883   -0.9985    0.5834 C   0  0  0  0  0  0
    1.4671   -1.9608    1.0383 O   0  0  0  0  0  0
    5.8446   -0.2292    0.2273 C   0  0  0  0  0  0
    6.4131   -0.5510    1.4691 C   0  0  0  0  0  0
    7.7955   -0.6220    1.6348 C   0  0  0  0  0  0
    8.6605   -0.3807    0.5559 C   0  0  0  0  0  0
   10.0402   -0.4316    0.6454 O   0  0  0  0  0  0
   10.6494   -0.7426    1.8941 C   0  0  0  0  0  0
    8.1008   -0.0706   -0.6889 C   0  0  0  0  0  0
    9.1125    0.2280   -2.0597 Cl  0  0  0  0  0  0
    6.7160    0.0001   -0.8471 C   0  0  0  0  0  0
   -0.5006   -0.7111   -1.4742 C   0  0  0  0  0  0
   -1.7125   -1.3966   -1.3672 C   0  0  0  0  0  0
   -2.3360   -1.8652   -2.5266 C   0  0  0  0  0  0
   -1.6546   -1.7524   -3.7445 C   0  0  0  0  0  0
   -0.3974   -1.1442   -3.7593 C   0  0  0  0  0  0
    0.1757   -0.6082   -2.6516 N   0  0  0  0  0  0
   -6.1117   -2.2184   -2.9276 C   0  0  0  0  0  0
  -11.7316   -5.1325   -2.0954 H   0  0  0  0  0  0
  -11.1625   -4.6715   -3.7022 H   0  0  0  0  0  0
  -11.5259   -3.4253   -2.4972 H   0  0  0  0  0  0
   -7.6474   -4.7372   -1.3665 H   0  0  0  0  0  0
   -5.4274   -4.9675   -1.0508 H   0  0  0  0  0  0
   -3.1638   -4.0776   -1.2560 H   0  0  0  0  0  0
   -4.9333   -0.5833   -4.7489 H   0  0  0  0  0  0
   -4.0696    0.0667   -1.2817 H   0  0  0  0  0  0
   -6.1881    1.3491   -1.2780 H   0  0  0  0  0  0
   -5.3100    2.8298   -1.6417 H   0  0  0  0  0  0
   -5.0443    1.9962   -0.1142 H   0  0  0  0  0  0
   -1.9999    1.2478   -2.3577 H   0  0  0  0  0  0
   -2.7569    2.7367   -1.9692 H   0  0  0  0  0  0
   -2.4090    2.5196    0.3137 H   0  0  0  0  0  0
   -2.5343    0.7970    0.3416 H   0  0  0  0  0  0
   -0.1330    2.1522   -0.9527 H   0  0  0  0  0  0
   -0.2193    1.9407    0.7660 H   0  0  0  0  0  0
   -0.3758   -0.4472    0.6116 H   0  0  0  0  0  0
    1.8221    1.5063   -1.6652 H   0  0  0  0  0  0
    2.4516    1.8572   -0.0917 H   0  0  0  0  0  0
    3.7090   -0.1196   -2.0076 H   0  0  0  0  0  0
    4.3889    1.4141   -1.4712 H   0  0  0  0  0  0
    3.9058   -1.4944    1.5997 H   0  0  0  0  0  0
    5.7909   -0.7327    2.3324 H   0  0  0  0  0  0
    8.1768   -0.8661    2.6146 H   0  0  0  0  0  0
   11.7329   -0.7341    1.7766 H   0  0  0  0  0  0
   10.3638   -1.7362    2.2427 H   0  0  0  0  0  0
   10.3955   -0.0065    2.6582 H   0  0  0  0  0  0
    6.3261    0.2277   -1.8284 H   0  0  0  0  0  0
   -2.2269   -1.4475   -0.4182 H   0  0  0  0  0  0
   -2.0990   -2.1088   -4.6624 H   0  0  0  0  0  0
    0.1528   -1.0406   -4.6827 H   0  0  0  0  0  0
   -6.9228   -1.6765   -3.3889 H   0  0  0  0  0  0
  1  2  1  0  0  0
  1 43  1  0  0  0
  1 44  1  0  0  0
  1 45  1  0  0  0
  2  3  1  0  0  0
  3  4  2  0  0  0
  3  5  1  0  0  0
  5  6  1  0  0  0
  5 46  1  0  0  0
  6  7  2  0  0  0
  6 42  1  0  0  0
  7  8  1  0  0  0
  7 47  1  0  0  0
  8  9  2  0  0  0
  8 48  1  0  0  0
  9 10  1  0  0  0
  9 38  1  0  0  0
 10 11  1  0  0  0
 10 42  2  0  0  0
 11 12  1  0  0  0
 11 49  1  0  0  0
 12 13  2  0  0  0
 12 14  1  0  0  0
 14 15  1  0  0  0
 14 16  1  0  0  0
 14 50  1  0  0  0
 15 51  1  0  0  0
 15 52  1  0  0  0
 15 53  1  0  0  0
 16 17  1  0  0  0
 16 54  1  0  0  0
 16 55  1  0  0  0
 17 18  1  0  0  0
 17 56  1  0  0  0
 17 57  1  0  0  0
 18 19  1  0  0  0
 18 58  1  0  0  0
 18 59  1  0  0  0
 19 20  1  0  0  0
 19 36  1  0  0  0
 19 60  1  0  0  0
 20 21  1  0  0  0
 20 25  1  0  0  0
 21 22  1  0  0  0
 21 61  1  0  0  0
 21 62  1  0  0  0
 22 23  1  0  0  0
 22 63  1  0  0  0
 22 64  1  0  0  0
 23 24  2  0  0  0
 23 27  1  0  0  0
 24 25  1  0  0  0
 24 65  1  0  0  0
 25 26  2  0  0  0
 27 28  2  0  0  0
 27 35  1  0  0  0
 28 29  1  0  0  0
 28 66  1  0  0  0
 29 30  2  0  0  0
 29 67  1  0  0  0
 30 31  1  0  0  0
 30 33  1  0  0  0
 31 32  1  0  0  0
 32 68  1  0  0  0
 32 69  1  0  0  0
 32 70  1  0  0  0
 33 34  1  0  0  0
 33 35  2  0  0  0
 35 71  1  0  0  0
 36 37  1  0  0  0
 36 41  2  0  0  0
 37 38  2  0  0  0
 37 72  1  0  0  0
 38 39  1  0  0  0
 39 40  2  0  0  0
 39 73  1  0  0  0
 40 41  1  0  0  0
 40 74  1  0  0  0
 42 75  1  0  0  0
M  END
> <chembl_id>
CHEMBL4114999

> <chembl_pref_name>
None

> <i_m_ct_stereo_status>
1

> <s_m_source_file>
sdf/inactives_sanitized.sdf

> <i_m_source_file_index>
241

> <i_lp_mmshare_version>
49012

> <i_f3d_flags>
0

> <s_epik_input>
W0NIM11PQyg9TylbTkhdYyhbY0hdW2NIXTEpW2NIXWMoYzEyKVtOSF1DKD1PKVtDQEhdKFtDSDNdKVtDSDJdW0NIMl1bQ0gyXVtDQEBIXShjM1tjSF1jMltjSF1bY0hdbjMpTjRbQ0gyXVtDSDJdQyg9W0NIXUM0PU8pYzVbY0hdW2NIXWMoT1tDSDNdKWMoQ2wpW2NIXTU=

> <s_epik_cmdline>
J2VwaWtfcHl0aG9uJywgJy1waHQnLCAnMC41JywgJy1waCcsICc3LjUnLCAnLW50JywgJy1tYScsICcyMDAnLCAnLWltYWUnLCAnPGluZmlsZS5tYWU+JywgJy1vbWFlJywgJzxvdXRmaWxlLm1hZT4n

> <r_lp_tautomer_probability>
1

> <r_epik_Ionization_Penalty>
  0.0001

> <r_epik_Ionization_Penalty_Charging>
  0.0000

> <r_epik_Ionization_Penalty_Neutral>
  0.0001

> <r_epik_State_Penalty>
 -0.0000

> <r_epik_Charging_Adjusted_Penalty>
0

> <i_epik_Tot_Q>
0

> <i_epik_Tot_abs_Q>
0

> <s_epik_Chemistry_Notes>
This compound has an ester and may undergo hydrolysis at high or low pH.

> <s_lp_Force_Field>
OPLS3e

> <r_lp_Energy>
100.304478

> <b_lp_Chiralities_Consistent>
1

> <s_lp_Variant>
sdf/inactives_sanitized.sdf:241-1

$$$$
sdf/inactives_sanitized.sdf:242
                    3D
 Schrodinger Suite 2020-1.
 69 73  0  0  1  0            999 V2000
   -0.6907   -0.8909    1.4859 C   0  0  0  0  0  0
   -0.0105   -0.3445    0.2107 C   0  0  0  0  0  0
   -0.5617   -1.0597   -1.0418 C   0  0  0  0  0  0
    1.5530   -0.3230    0.2485 C   0  0  1  0  0  0
    2.1436    0.6028    1.3576 C   0  0  0  0  0  0
    1.9187    2.1230    1.1418 C   0  0  0  0  0  0
    3.0889    3.0244    1.6329 C   0  0  0  0  0  0
    4.2237    3.3291    0.5977 C   0  0  2  0  0  0
    3.9128    4.3550   -0.4453 N   0  0  0  0  0  0
    2.6015    5.0747   -0.4429 C   0  0  0  0  0  0
    2.2263    5.6283   -1.8423 C   0  0  0  0  0  0
    3.4123    6.3987   -2.3926 C   0  0  0  0  0  0
    4.6450    5.9319   -2.1124 C   0  0  0  0  0  0
    4.9386    4.8050   -1.2510 C   0  0  0  0  0  0
    6.0595    4.2955   -1.2988 O   0  0  0  0  0  0
    3.2264    7.4449   -3.4291 C   0  0  0  0  0  0
    3.8911    8.6785   -3.3176 C   0  0  0  0  0  0
    4.7036    8.9334   -2.2643 F   0  0  0  0  0  0
    3.7147    9.6711   -4.2810 C   0  0  0  0  0  0
    2.8731    9.4508   -5.3676 C   0  0  0  0  0  0
    2.2048    8.2349   -5.4947 C   0  0  0  0  0  0
    1.1653    7.9764   -6.8506 Cl  0  0  0  0  0  0
    2.3787    7.2355   -4.5318 C   0  0  0  0  0  0
    1.7309    6.0557   -4.6860 F   0  0  0  0  0  0
    4.8061    2.0166    0.0562 C   0  0  0  0  0  0
    4.2287    1.3843   -1.0486 C   0  0  0  0  0  0
    4.5818    0.0642   -1.3403 C   0  0  0  0  0  0
    5.6008   -0.5359   -0.5901 C   0  0  0  0  0  0
    6.1953    0.1922    0.4435 C   0  0  0  0  0  0
    5.7979    1.4441    0.7887 N   0  0  0  0  0  0
    3.8097   -0.6858   -2.3631 C   0  0  0  0  0  0
    3.8668   -0.2630   -3.6973 C   0  0  0  0  0  0
    3.1432   -0.9198   -4.6909 C   0  0  0  0  0  0
    2.3461   -2.0132   -4.3636 C   0  0  0  0  0  0
    2.2663   -2.4448   -3.0416 C   0  0  0  0  0  0
    2.9757   -1.7804   -2.0358 C   0  0  0  0  0  0
    2.8458   -2.2909   -0.7341 N   0  0  0  0  0  0
    2.2088   -1.7336    0.3215 C   0  0  0  0  0  0
    2.1522   -2.3571    1.3804 O   0  0  0  0  0  0
   -0.4655   -1.9449    1.6489 H   0  0  0  0  0  0
   -1.7755   -0.8011    1.4169 H   0  0  0  0  0  0
   -0.3873   -0.3426    2.3770 H   0  0  0  0  0  0
   -0.3311    0.6941    0.1156 H   0  0  0  0  0  0
   -0.3447   -2.1285   -1.0263 H   0  0  0  0  0  0
   -0.1307   -0.6481   -1.9554 H   0  0  0  0  0  0
   -1.6439   -0.9471   -1.1168 H   0  0  0  0  0  0
    1.8465    0.1285   -0.6955 H   0  0  0  0  0  0
    1.7699    0.3178    2.3413 H   0  0  0  0  0  0
    3.2145    0.4165    1.4324 H   0  0  0  0  0  0
    1.7198    2.3309    0.0904 H   0  0  0  0  0  0
    1.0039    2.4082    1.6629 H   0  0  0  0  0  0
    2.6897    3.9658    2.0124 H   0  0  0  0  0  0
    3.5351    2.5670    2.5175 H   0  0  0  0  0  0
    5.0123    3.7940    1.1941 H   0  0  0  0  0  0
    1.7931    4.5417    0.0518 H   0  0  0  0  0  0
    2.7672    5.9625    0.1702 H   0  0  0  0  0  0
    2.0003    4.7812   -2.4914 H   0  0  0  0  0  0
    1.3347    6.2538   -1.7894 H   0  0  0  0  0  0
    5.4970    6.4048   -2.5813 H   0  0  0  0  0  0
    4.2282   10.6162   -4.1827 H   0  0  0  0  0  0
    2.7408   10.2249   -6.1094 H   0  0  0  0  0  0
    3.4244    1.8623   -1.5896 H   0  0  0  0  0  0
    5.9090   -1.5520   -0.7885 H   0  0  0  0  0  0
    6.9806   -0.2446    1.0425 H   0  0  0  0  0  0
    4.4814    0.5833   -3.9696 H   0  0  0  0  0  0
    3.2021   -0.5814   -5.7150 H   0  0  0  0  0  0
    1.7881   -2.5254   -5.1335 H   0  0  0  0  0  0
    1.6408   -3.2932   -2.8017 H   0  0  0  0  0  0
    3.1761   -3.2368   -0.6107 H   0  0  0  0  0  0
  1  2  1  0  0  0
  1 40  1  0  0  0
  1 41  1  0  0  0
  1 42  1  0  0  0
  2  3  1  0  0  0
  2  4  1  0  0  0
  2 43  1  0  0  0
  3 44  1  0  0  0
  3 45  1  0  0  0
  3 46  1  0  0  0
  4  5  1  0  0  0
  4 38  1  0  0  0
  4 47  1  0  0  0
  5  6  1  0  0  0
  5 48  1  0  0  0
  5 49  1  0  0  0
  6  7  1  0  0  0
  6 50  1  0  0  0
  6 51  1  0  0  0
  7  8  1  0  0  0
  7 52  1  0  0  0
  7 53  1  0  0  0
  8  9  1  0  0  0
  8 25  1  0  0  0
  8 54  1  0  0  0
  9 10  1  0  0  0
  9 14  1  0  0  0
 10 11  1  0  0  0
 10 55  1  0  0  0
 10 56  1  0  0  0
 11 12  1  0  0  0
 11 57  1  0  0  0
 11 58  1  0  0  0
 12 13  2  0  0  0
 12 16  1  0  0  0
 13 14  1  0  0  0
 13 59  1  0  0  0
 14 15  2  0  0  0
 16 17  2  0  0  0
 16 23  1  0  0  0
 17 18  1  0  0  0
 17 19  1  0  0  0
 19 20  2  0  0  0
 19 60  1  0  0  0
 20 21  1  0  0  0
 20 61  1  0  0  0
 21 22  1  0  0  0
 21 23  2  0  0  0
 23 24  1  0  0  0
 25 26  1  0  0  0
 25 30  2  0  0  0
 26 27  2  0  0  0
 26 62  1  0  0  0
 27 28  1  0  0  0
 27 31  1  0  0  0
 28 29  2  0  0  0
 28 63  1  0  0  0
 29 30  1  0  0  0
 29 64  1  0  0  0
 31 32  2  0  0  0
 31 36  1  0  0  0
 32 33  1  0  0  0
 32 65  1  0  0  0
 33 34  2  0  0  0
 33 66  1  0  0  0
 34 35  1  0  0  0
 34 67  1  0  0  0
 35 36  2  0  0  0
 35 68  1  0  0  0
 36 37  1  0  0  0
 37 38  1  0  0  0
 37 69  1  0  0  0
 38 39  2  0  0  0
M  END
> <chembl_id>
CHEMBL4114616

> <chembl_pref_name>
None

> <i_m_ct_stereo_status>
1

> <s_m_source_file>
sdf/inactives_sanitized.sdf

> <i_m_source_file_index>
242

> <i_lp_mmshare_version>
49012

> <i_f3d_flags>
0

> <s_epik_input>
bjFbY0hdW2NIXWMoW2NIXWMxMiljM2MoW2NIXVtjSF1bY0hdW2NIXTMpW05IXUMoPU8pW0NAQEhdKFtDSF0oW0NIM10pW0NIM10pW0NIMl1bQ0gyXVtDSDJdW0NAQEhdMk40W0NIMl1bQ0gyXUMoPVtDSF1DND1PKWM1YyhGKVtjSF1bY0hdYyhDbCljNUY=

> <s_epik_cmdline>
J2VwaWtfcHl0aG9uJywgJy1waHQnLCAnMC41JywgJy1waCcsICc3LjUnLCAnLW50JywgJy1tYScsICcyMDAnLCAnLWltYWUnLCAnPGluZmlsZS5tYWU+JywgJy1vbWFlJywgJzxvdXRmaWxlLm1hZT4n

> <r_lp_tautomer_probability>
1

> <r_epik_Ionization_Penalty>
  0.0001

> <r_epik_Ionization_Penalty_Charging>
  0.0000

> <r_epik_Ionization_Penalty_Neutral>
  0.0001

> <r_epik_State_Penalty>
 -0.0000

> <r_epik_Charging_Adjusted_Penalty>
0

> <i_epik_Tot_Q>
0

> <i_epik_Tot_abs_Q>
0

> <s_lp_Force_Field>
OPLS3e

> <r_lp_Energy>
96.521379

> <b_lp_Chiralities_Consistent>
1

> <s_lp_Variant>
sdf/inactives_sanitized.sdf:242-1

$$$$
sdf/inactives_sanitized.sdf:243
                    3D
 Schrodinger Suite 2020-1.
 68 72  0  0  1  0            999 V2000
   -5.1482    1.9474   -1.3087 C   0  0  0  0  0  0
   -4.0621    0.9972   -1.8530 C   0  0  2  0  0  0
   -2.6439    1.6380   -1.7910 C   0  0  0  0  0  0
   -2.0292    1.7396   -0.3696 C   0  0  0  0  0  0
   -0.4875    1.5594   -0.3148 C   0  0  0  0  0  0
    0.0246    0.0869   -0.1932 C   0  0  2  0  0  0
    1.4993   -0.0118   -0.0501 N   0  0  0  0  0  0
    2.3795    0.8668   -0.8795 C   0  0  0  0  0  0
    3.7865    0.2592   -1.1307 C   0  0  0  0  0  0
    4.3219   -0.2874    0.1781 C   0  0  0  0  0  0
    3.4531   -0.8560    1.0352 C   0  0  0  0  0  0
    2.0225   -0.9284    0.8297 C   0  0  0  0  0  0
    1.3559   -1.7774    1.4240 O   0  0  0  0  0  0
    5.7790   -0.3849    0.4174 C   0  0  0  0  0  0
    6.3462    0.4944    1.3552 C   0  0  0  0  0  0
    5.5604    1.3729    2.0257 F   0  0  0  0  0  0
    7.7192    0.4805    1.6060 C   0  0  0  0  0  0
    8.4134    1.5613    2.7617 Cl  0  0  0  0  0  0
    8.5399   -0.4089    0.9211 C   0  0  0  0  0  0
    7.9924   -1.2813   -0.0141 C   0  0  0  0  0  0
    6.6173   -1.2790   -0.2910 C   0  0  0  0  0  0
    6.0707   -2.3059   -1.2970 C   0  0  0  0  0  0
    6.9218   -3.3143   -1.4983 F   0  0  0  0  0  0
    4.9265   -2.8483   -0.8791 F   0  0  0  0  0  0
    5.8585   -1.7037   -2.4665 F   0  0  0  0  0  0
   -0.5456   -0.8165   -1.2914 C   0  0  0  0  0  0
   -1.7874   -1.4259   -1.0997 C   0  0  0  0  0  0
   -2.4338   -2.0153   -2.1895 C   0  0  0  0  0  0
   -1.7508   -2.0945   -3.4093 C   0  0  0  0  0  0
   -0.4675   -1.5509   -3.4994 C   0  0  0  0  0  0
    0.1319   -0.9004   -2.4696 N   0  0  0  0  0  0
   -3.8440   -2.4569   -2.0499 C   0  0  0  0  0  0
   -4.1364   -3.5251   -1.1967 C   0  0  0  0  0  0
   -5.4451   -3.9702   -1.0234 C   0  0  0  0  0  0
   -6.5100   -3.3574   -1.6994 C   0  0  0  0  0  0
   -6.2208   -2.2762   -2.5462 C   0  0  0  0  0  0
   -4.9116   -1.8126   -2.7117 C   0  0  0  0  0  0
   -4.7332   -0.7355   -3.5955 N   0  0  0  0  0  0
   -4.3963    0.5408   -3.2985 C   0  0  0  0  0  0
   -4.3508    1.3747   -4.2026 O   0  0  0  0  0  0
   -7.9195   -3.8442   -1.5212 C   0  0  0  0  0  0
   -8.8277   -3.2630   -2.1585 O   0  0  0  0  0  0
   -8.1154   -4.8071   -0.7446 O   0  5  0  0  0  0
   -6.1325    1.4766   -1.3242 H   0  0  0  0  0  0
   -5.2149    2.8664   -1.8932 H   0  0  0  0  0  0
   -4.9438    2.2286   -0.2752 H   0  0  0  0  0  0
   -4.0662    0.1268   -1.2009 H   0  0  0  0  0  0
   -1.9686    1.0711   -2.4312 H   0  0  0  0  0  0
   -2.6611    2.6297   -2.2466 H   0  0  0  0  0  0
   -2.2876    2.7172    0.0398 H   0  0  0  0  0  0
   -2.4940    1.0231    0.3085 H   0  0  0  0  0  0
   -0.0439    2.0620   -1.1747 H   0  0  0  0  0  0
   -0.1239    2.1048    0.5574 H   0  0  0  0  0  0
   -0.4121   -0.2750    0.7400 H   0  0  0  0  0  0
    1.8836    1.2092   -1.7876 H   0  0  0  0  0  0
    2.5336    1.7673   -0.2833 H   0  0  0  0  0  0
    3.6637   -0.5573   -1.8429 H   0  0  0  0  0  0
    4.4598    0.9948   -1.5719 H   0  0  0  0  0  0
    3.8364   -1.3179    1.9345 H   0  0  0  0  0  0
    9.6029   -0.4262    1.1127 H   0  0  0  0  0  0
    8.6564   -1.9615   -0.5274 H   0  0  0  0  0  0
   -2.3024   -1.3281   -0.1546 H   0  0  0  0  0  0
   -2.2124   -2.5502   -4.2732 H   0  0  0  0  0  0
    0.0853   -1.5959   -4.4261 H   0  0  0  0  0  0
   -3.3399   -4.0234   -0.6630 H   0  0  0  0  0  0
   -5.6183   -4.8031   -0.3568 H   0  0  0  0  0  0
   -7.0203   -1.7805   -3.0803 H   0  0  0  0  0  0
   -5.0079   -0.9166   -4.5499 H   0  0  0  0  0  0
  1  2  1  0  0  0
  1 44  1  0  0  0
  1 45  1  0  0  0
  1 46  1  0  0  0
  2  3  1  0  0  0
  2 39  1  0  0  0
  2 47  1  0  0  0
  3  4  1  0  0  0
  3 48  1  0  0  0
  3 49  1  0  0  0
  4  5  1  0  0  0
  4 50  1  0  0  0
  4 51  1  0  0  0
  5  6  1  0  0  0
  5 52  1  0  0  0
  5 53  1  0  0  0
  6  7  1  0  0  0
  6 26  1  0  0  0
  6 54  1  0  0  0
  7  8  1  0  0  0
  7 12  1  0  0  0
  8  9  1  0  0  0
  8 55  1  0  0  0
  8 56  1  0  0  0
  9 10  1  0  0  0
  9 57  1  0  0  0
  9 58  1  0  0  0
 10 11  2  0  0  0
 10 14  1  0  0  0
 11 12  1  0  0  0
 11 59  1  0  0  0
 12 13  2  0  0  0
 14 15  2  0  0  0
 14 21  1  0  0  0
 15 16  1  0  0  0
 15 17  1  0  0  0
 17 18  1  0  0  0
 17 19  2  0  0  0
 19 20  1  0  0  0
 19 60  1  0  0  0
 20 21  2  0  0  0
 20 61  1  0  0  0
 21 22  1  0  0  0
 22 23  1  0  0  0
 22 24  1  0  0  0
 22 25  1  0  0  0
 26 27  1  0  0  0
 26 31  2  0  0  0
 27 28  2  0  0  0
 27 62  1  0  0  0
 28 29  1  0  0  0
 28 32  1  0  0  0
 29 30  2  0  0  0
 29 63  1  0  0  0
 30 31  1  0  0  0
 30 64  1  0  0  0
 32 33  2  0  0  0
 32 37  1  0  0  0
 33 34  1  0  0  0
 33 65  1  0  0  0
 34 35  2  0  0  0
 34 66  1  0  0  0
 35 36  1  0  0  0
 35 41  1  0  0  0
 36 37  2  0  0  0
 36 67  1  0  0  0
 37 38  1  0  0  0
 38 39  1  0  0  0
 38 68  1  0  0  0
 39 40  2  0  0  0
 41 42  2  0  0  0
 41 43  1  0  0  0
M  CHG  1  43  -1
M  END
> <chembl_id>
CHEMBL3960611

> <chembl_pref_name>
None

> <i_m_ct_stereo_status>
1

> <s_m_source_file>
sdf/inactives_sanitized.sdf

> <i_m_source_file_index>
243

> <i_lp_mmshare_version>
49012

> <i_f3d_flags>
0

> <s_epik_input>
bjFbY0hdW2NIXWMoW2NIXWMxMiljM2MoW2NIXWMoW2NIXVtjSF0zKUMoPU8pW09IXSlbTkhdQyg9TylbQ0BIXShbQ0gzXSlbQ0gyXVtDSDJdW0NIMl1bQ0BASF0yTjRbQ0gyXVtDSDJdQyg9W0NIXUM0PU8pYzVjKEYpYyhDbClbY0hdW2NIXWM1QyhGKShGKUY=

> <s_epik_cmdline>
J2VwaWtfcHl0aG9uJywgJy1waHQnLCAnMC41JywgJy1waCcsICc3LjUnLCAnLW50JywgJy1tYScsICcyMDAnLCAnLWltYWUnLCAnPGluZmlsZS5tYWU+JywgJy1vbWFlJywgJzxvdXRmaWxlLm1hZT4n

> <r_lp_tautomer_probability>
1

> <r_epik_Ionization_Penalty>
  0.0002

> <r_epik_Ionization_Penalty_Charging>
  0.0002

> <r_epik_Ionization_Penalty_Neutral>
  0.0001

> <r_epik_State_Penalty>
 -0.0000

> <r_epik_Charging_Adjusted_Penalty>
0.000153439422440762

> <i_epik_Tot_Q>
-1

> <i_epik_Tot_abs_Q>
1

> <s_lp_Force_Field>
OPLS3e

> <r_lp_Energy>
97.081455

> <b_lp_Chiralities_Consistent>
1

> <s_lp_Variant>
sdf/inactives_sanitized.sdf:243-1

$$$$
sdf/inactives_sanitized.sdf:244
                    3D
 Schrodinger Suite 2020-1.
 47 50  0  0  1  0            999 V2000
   -1.3330    1.8018    1.0034 N   0  0  0  0  0  0
   -0.9055    3.3783   -0.4641 C   0  0  0  0  0  0
   -0.9423    4.6599   -1.0266 C   0  0  0  0  0  0
   -2.2851    4.1251    1.4355 C   0  0  0  0  0  0
   -2.3090    5.4010    0.8561 C   0  0  0  0  0  0
   -1.6482    5.6677   -0.3589 C   0  0  0  0  0  0
   -1.5776    3.1322    0.7561 C   0  0  0  0  0  0
   -0.5570    1.3301   -0.0297 C   0  0  0  0  0  0
   -0.2851    2.2467   -0.9264 N   0  0  0  0  0  0
   -0.0552   -0.1013   -0.0812 C   0  0  0  0  0  0
    1.4836   -0.2196    0.0134 C   0  0  0  0  0  0
    2.0819    0.5256    1.1227 N   0  0  0  0  0  0
    1.9347    0.2350    2.4282 C   0  0  0  0  0  0
    2.5424    1.2248    3.3919 C   0  0  0  0  0  0
    1.2882   -0.7288    2.8429 O   0  0  0  0  0  0
    1.7627    1.6600    4.4727 C   0  0  0  0  0  0
    2.2636    2.5708    5.4002 C   0  0  0  0  0  0
    3.5682    3.0555    5.2741 C   0  0  0  0  0  0
    4.3652    2.6079    4.2154 C   0  0  0  0  0  0
    3.8701    1.6948    3.2816 C   0  0  0  0  0  0
    4.0774    3.9822    6.2086 N   0  0  0  0  0  0
    3.3975    4.9214    6.9529 C   0  0  0  0  0  0
    4.1980    5.6169    7.7215 N   0  0  0  0  0  0
    5.4843    5.1350    7.4998 N   0  0  0  0  0  0
    5.3809    4.1809    6.6088 C   0  0  0  0  0  0
   -1.6836    7.0577   -0.9816 C   0  0  0  0  0  0
   -3.0744    6.5006    1.5822 C   0  0  0  0  0  0
    4.9607    1.1674    2.0402 Cl  0  0  0  0  0  0
   -1.6313    1.2329    1.7825 H   0  0  0  0  0  0
   -0.4333    4.8636   -1.9577 H   0  0  0  0  0  0
   -2.7915    3.9183    2.3671 H   0  0  0  0  0  0
   -0.5077   -0.6968    0.7129 H   0  0  0  0  0  0
   -0.3873   -0.5758   -1.0053 H   0  0  0  0  0  0
    1.7831   -1.2679    0.0688 H   0  0  0  0  0  0
    1.9277    0.1808   -0.8988 H   0  0  0  0  0  0
    2.6471    1.3234    0.8700 H   0  0  0  0  0  0
    0.7497    1.3028    4.5968 H   0  0  0  0  0  0
    1.6307    2.8875    6.2165 H   0  0  0  0  0  0
    5.3790    2.9662    4.1087 H   0  0  0  0  0  0
    2.3269    5.0335    6.8630 H   0  0  0  0  0  0
    6.1844    3.5815    6.2063 H   0  0  0  0  0  0
   -2.7134    7.3620   -1.1712 H   0  0  0  0  0  0
   -1.1409    7.1043   -1.9268 H   0  0  0  0  0  0
   -1.2444    7.7893   -0.3028 H   0  0  0  0  0  0
   -2.4072    7.3267    1.8304 H   0  0  0  0  0  0
   -3.5321    6.1485    2.5079 H   0  0  0  0  0  0
   -3.8657    6.8973    0.9452 H   0  0  0  0  0  0
  1  7  1  0  0  0
  1  8  1  0  0  0
  1 29  1  0  0  0
  2  3  2  0  0  0
  2  7  1  0  0  0
  2  9  1  0  0  0
  3  6  1  0  0  0
  3 30  1  0  0  0
  4  7  2  0  0  0
  4  5  1  0  0  0
  4 31  1  0  0  0
  5  6  2  0  0  0
  5 27  1  0  0  0
  6 26  1  0  0  0
  8  9  2  0  0  0
  8 10  1  0  0  0
 10 11  1  0  0  0
 10 32  1  0  0  0
 10 33  1  0  0  0
 11 12  1  0  0  0
 11 34  1  0  0  0
 11 35  1  0  0  0
 12 13  1  0  0  0
 12 36  1  0  0  0
 13 14  1  0  0  0
 13 15  2  0  0  0
 14 16  2  0  0  0
 14 20  1  0  0  0
 16 17  1  0  0  0
 16 37  1  0  0  0
 17 18  2  0  0  0
 17 38  1  0  0  0
 18 19  1  0  0  0
 18 21  1  0  0  0
 19 20  2  0  0  0
 19 39  1  0  0  0
 20 28  1  0  0  0
 21 22  1  0  0  0
 21 25  1  0  0  0
 22 23  2  0  0  0
 22 40  1  0  0  0
 23 24  1  0  0  0
 24 25  2  0  0  0
 25 41  1  0  0  0
 26 42  1  0  0  0
 26 43  1  0  0  0
 26 44  1  0  0  0
 27 45  1  0  0  0
 27 46  1  0  0  0
 27 47  1  0  0  0
M  END
> <chembl_id>
CHEMBL3423040

> <chembl_pref_name>
None

> <s_m_source_file>
sdf/inactives_sanitized.sdf

> <i_m_source_file_index>
244

> <i_lp_mmshare_version>
49012

> <i_m_ct_stereo_status>
1

> <i_f3d_flags>
0

> <s_epik_input>
W2NIXTFjKFtDSDNdKWMoW0NIM10pW2NIXWMoYzEyKVtuSF1jKG4yKVtDSDJdW0NIMl1bTkhdQyg9TyljM1tjSF1bY0hdYyhbY0hdYzNDbCktbjRbY0hdbm5bY0hdNA==

> <s_epik_cmdline>
J2VwaWtfcHl0aG9uJywgJy1waHQnLCAnMC41JywgJy1waCcsICc3LjUnLCAnLW50JywgJy1tYScsICcyMDAnLCAnLWltYWUnLCAnPGluZmlsZS5tYWU+JywgJy1vbWFlJywgJzxvdXRmaWxlLm1hZT4n

> <r_lp_tautomer_probability>
1

> <r_epik_Ionization_Penalty>
  0.0235

> <r_epik_Ionization_Penalty_Charging>
  0.0000

> <r_epik_Ionization_Penalty_Neutral>
  0.0235

> <r_epik_State_Penalty>
  0.0190

> <r_epik_Charging_Adjusted_Penalty>
0.0189995681741242

> <i_epik_Tot_Q>
0

> <i_epik_Tot_abs_Q>
0

> <s_lp_Force_Field>
OPLS3e

> <r_lp_Energy>
24.167023

> <b_lp_Chiralities_Consistent>
1

> <s_lp_Variant>
sdf/inactives_sanitized.sdf:244-1

$$$$
sdf/inactives_sanitized.sdf:245
                    3D
 Schrodinger Suite 2020-1.
 44 47  0  0  1  0            999 V2000
   -0.4632    2.1621    1.1984 N   0  0  0  0  0  0
   -0.9594    3.2922   -0.6262 C   0  0  0  0  0  0
   -1.2502    4.4190   -1.4174 C   0  0  0  0  0  0
   -0.8188    4.6763    1.4127 C   0  0  0  0  0  0
   -1.1180    5.7776    0.6083 C   0  0  0  0  0  0
   -1.3258    5.6557   -0.7663 C   0  0  0  0  0  0
   -0.7420    3.4392    0.7691 C   0  0  0  0  0  0
   -0.5252    1.3401    0.0982 C   0  0  0  0  0  0
   -0.8340    1.9796   -1.0034 N   0  0  0  0  0  0
   -0.1871   -0.1389    0.1538 C   0  0  0  0  0  0
    1.3191   -0.4390   -0.0302 C   0  0  0  0  0  0
    1.8985    0.2086   -1.2112 N   0  0  0  0  0  0
    2.5904    1.3664   -1.2099 C   0  0  0  0  0  0
    2.8925    1.9726   -2.5627 C   0  0  0  0  0  0
    2.9455    1.9333   -0.1739 O   0  0  0  0  0  0
    2.1527    1.6202   -3.7026 C   0  0  0  0  0  0
    2.4174    2.2178   -4.9311 C   0  0  0  0  0  0
    3.4264    3.1793   -5.0381 C   0  0  0  0  0  0
    4.1708    3.5349   -3.9094 C   0  0  0  0  0  0
    3.9026    2.9363   -2.6818 C   0  0  0  0  0  0
    3.6875    3.7950   -6.2813 N   0  0  0  0  0  0
    3.4897    3.2989   -7.5516 C   0  0  0  0  0  0
    3.8445    4.1542   -8.4775 N   0  0  0  0  0  0
    4.3040    5.2897   -7.8185 N   0  0  0  0  0  0
    4.2008    5.0484   -6.5355 C   0  0  0  0  0  0
   -1.4710    4.3449   -2.9187 C   0  0  0  0  0  0
   -0.2293    1.8390    2.1258 H   0  0  0  0  0  0
   -0.6523    4.7849    2.4742 H   0  0  0  0  0  0
   -1.1864    6.7552    1.0630 H   0  0  0  0  0  0
   -1.5478    6.5473   -1.3351 H   0  0  0  0  0  0
   -0.5241   -0.5693    1.0975 H   0  0  0  0  0  0
   -0.7471   -0.6772   -0.6124 H   0  0  0  0  0  0
    1.8614   -0.1450    0.8712 H   0  0  0  0  0  0
    1.4665   -1.5143   -0.1349 H   0  0  0  0  0  0
    1.7390   -0.2526   -2.0949 H   0  0  0  0  0  0
    1.3525    0.8957   -3.6494 H   0  0  0  0  0  0
    1.8229    1.9367   -5.7882 H   0  0  0  0  0  0
    4.9589    4.2713   -3.9712 H   0  0  0  0  0  0
    4.4886    3.2333   -1.8231 H   0  0  0  0  0  0
    3.0923    2.3066   -7.7057 H   0  0  0  0  0  0
    4.4608    5.7174   -5.7284 H   0  0  0  0  0  0
   -1.6744    5.3219   -3.3591 H   0  0  0  0  0  0
   -2.3105    3.6858   -3.1417 H   0  0  0  0  0  0
   -0.5883    3.9274   -3.4047 H   0  0  0  0  0  0
  1  7  1  0  0  0
  1  8  1  0  0  0
  1 27  1  0  0  0
  2  3  2  0  0  0
  2  7  1  0  0  0
  2  9  1  0  0  0
  3  6  1  0  0  0
  3 26  1  0  0  0
  4  7  2  0  0  0
  4  5  1  0  0  0
  4 28  1  0  0  0
  5  6  2  0  0  0
  5 29  1  0  0  0
  6 30  1  0  0  0
  8  9  2  0  0  0
  8 10  1  0  0  0
 10 11  1  0  0  0
 10 31  1  0  0  0
 10 32  1  0  0  0
 11 12  1  0  0  0
 11 33  1  0  0  0
 11 34  1  0  0  0
 12 13  1  0  0  0
 12 35  1  0  0  0
 13 14  1  0  0  0
 13 15  2  0  0  0
 14 16  2  0  0  0
 14 20  1  0  0  0
 16 17  1  0  0  0
 16 36  1  0  0  0
 17 18  2  0  0  0
 17 37  1  0  0  0
 18 19  1  0  0  0
 18 21  1  0  0  0
 19 20  2  0  0  0
 19 38  1  0  0  0
 20 39  1  0  0  0
 21 22  1  0  0  0
 21 25  1  0  0  0
 22 23  2  0  0  0
 22 40  1  0  0  0
 23 24  1  0  0  0
 24 25  2  0  0  0
 25 41  1  0  0  0
 26 42  1  0  0  0
 26 43  1  0  0  0
 26 44  1  0  0  0
M  END
> <chembl_id>
CHEMBL3423030

> <chembl_pref_name>
None

> <s_m_source_file>
sdf/inactives_sanitized.sdf

> <i_m_source_file_index>
245

> <i_lp_mmshare_version>
49012

> <i_m_ct_stereo_status>
1

> <i_f3d_flags>
0

> <s_epik_input>
W0NIM11jMVtjSF1bY0hdW2NIXWMoYzEyKVtuSF1jKG4yKVtDSDJdW0NIMl1bTkhdQyg9TyljM1tjSF1bY0hdYyhbY0hdW2NIXTMpLW40W2NIXW5uW2NIXTQ=

> <s_epik_cmdline>
J2VwaWtfcHl0aG9uJywgJy1waHQnLCAnMC41JywgJy1waCcsICc3LjUnLCAnLW50JywgJy1tYScsICcyMDAnLCAnLWltYWUnLCAnPGluZmlsZS5tYWU+JywgJy1vbWFlJywgJzxvdXRmaWxlLm1hZT4n

> <r_lp_tautomer_probability>
1

> <r_epik_Ionization_Penalty>
  0.0368

> <r_epik_Ionization_Penalty_Charging>
  0.0000

> <r_epik_Ionization_Penalty_Neutral>
  0.0368

> <r_epik_State_Penalty>
  0.4104

> <r_epik_Charging_Adjusted_Penalty>
0.410398192977596

> <i_epik_Tot_Q>
0

> <i_epik_Tot_abs_Q>
0

> <s_lp_Force_Field>
OPLS3e

> <r_lp_Energy>
22.584684

> <b_lp_Chiralities_Consistent>
1

> <s_lp_Variant>
sdf/inactives_sanitized.sdf:245-1

$$$$
sdf/inactives_sanitized.sdf:245
                    3D
 Schrodinger Suite 2020-1.
 44 47  0  0  1  0            999 V2000
   -1.3964    1.8705   -0.9218 N   0  0  0  0  0  0
   -0.9297    3.3256    0.8018 C   0  0  0  0  0  0
   -0.9008    4.5538    1.4760 C   0  0  0  0  0  0
   -2.0826    4.2673   -1.1299 C   0  0  0  0  0  0
   -2.0620    5.4953   -0.4700 C   0  0  0  0  0  0
   -1.4869    5.6296    0.7944 C   0  0  0  0  0  0
   -1.5064    3.1648   -0.4852 C   0  0  0  0  0  0
   -0.7755    1.2451    0.0478 C   0  0  0  0  0  0
   -0.4746    2.0640    1.1111 N   0  0  0  0  0  0
   -0.3702   -0.2164   -0.0017 C   0  0  0  0  0  0
    1.1508   -0.4381   -0.1589 C   0  0  0  0  0  0
    1.7303    0.2570   -1.3123 N   0  0  0  0  0  0
    2.3413    1.4590   -1.2806 C   0  0  0  0  0  0
    2.7848    2.0318   -2.6106 C   0  0  0  0  0  0
    2.5359    2.0796   -0.2327 O   0  0  0  0  0  0
    2.3251    1.5055   -3.8287 C   0  0  0  0  0  0
    2.7288    2.0620   -5.0391 C   0  0  0  0  0  0
    3.5983    3.1565   -5.0506 C   0  0  0  0  0  0
    4.0633    3.6872   -3.8439 C   0  0  0  0  0  0
    3.6575    3.1287   -2.6357 C   0  0  0  0  0  0
    4.0024    3.7276   -6.2768 N   0  0  0  0  0  0
    4.1134    3.1327   -7.5148 C   0  0  0  0  0  0
    4.5188    3.9735   -8.4332 N   0  0  0  0  0  0
    4.6931    5.2012   -7.8027 N   0  0  0  0  0  0
    4.3840    5.0248   -6.5425 C   0  0  0  0  0  0
   -0.2954    4.7829    2.8488 C   0  0  0  0  0  0
   -2.5285    4.1731   -2.1093 H   0  0  0  0  0  0
   -2.4992    6.3606   -0.9465 H   0  0  0  0  0  0
   -1.4994    6.6063    1.2565 H   0  0  0  0  0  0
   -0.7090   -0.7240    0.9021 H   0  0  0  0  0  0
   -0.8849   -0.7260   -0.8180 H   0  0  0  0  0  0
    1.6611   -0.1396    0.7596 H   0  0  0  0  0  0
    1.3507   -1.5033   -0.2800 H   0  0  0  0  0  0
    1.6689   -0.2244   -2.1973 H   0  0  0  0  0  0
    1.6417    0.6690   -3.8567 H   0  0  0  0  0  0
    2.3497    1.6427   -5.9597 H   0  0  0  0  0  0
    4.7406    4.5286   -3.8292 H   0  0  0  0  0  0
    4.0313    3.5606   -1.7179 H   0  0  0  0  0  0
    3.8869    2.0857   -7.6515 H   0  0  0  0  0  0
    4.3974    5.7716   -5.7624 H   0  0  0  0  0  0
   -0.3650    5.8254    3.1627 H   0  0  0  0  0  0
    0.7580    4.5016    2.8451 H   0  0  0  0  0  0
   -0.8087    4.1716    3.5914 H   0  0  0  0  0  0
    0.0137    1.7501    1.9371 H   0  0  0  0  0  0
  1  7  1  0  0  0
  1  8  2  0  0  0
  2  3  2  0  0  0
  2  7  1  0  0  0
  2  9  1  0  0  0
  3  6  1  0  0  0
  3 26  1  0  0  0
  4  7  2  0  0  0
  4  5  1  0  0  0
  4 27  1  0  0  0
  5  6  2  0  0  0
  5 28  1  0  0  0
  6 29  1  0  0  0
  8  9  1  0  0  0
  8 10  1  0  0  0
  9 44  1  0  0  0
 10 11  1  0  0  0
 10 30  1  0  0  0
 10 31  1  0  0  0
 11 12  1  0  0  0
 11 32  1  0  0  0
 11 33  1  0  0  0
 12 13  1  0  0  0
 12 34  1  0  0  0
 13 14  1  0  0  0
 13 15  2  0  0  0
 14 16  2  0  0  0
 14 20  1  0  0  0
 16 17  1  0  0  0
 16 35  1  0  0  0
 17 18  2  0  0  0
 17 36  1  0  0  0
 18 19  1  0  0  0
 18 21  1  0  0  0
 19 20  2  0  0  0
 19 37  1  0  0  0
 20 38  1  0  0  0
 21 22  1  0  0  0
 21 25  1  0  0  0
 22 23  2  0  0  0
 22 39  1  0  0  0
 23 24  1  0  0  0
 24 25  2  0  0  0
 25 40  1  0  0  0
 26 41  1  0  0  0
 26 42  1  0  0  0
 26 43  1  0  0  0
M  END
> <chembl_id>
CHEMBL3423030

> <chembl_pref_name>
None

> <s_m_source_file>
sdf/inactives_sanitized.sdf

> <i_m_source_file_index>
245

> <i_lp_mmshare_version>
49012

> <i_m_ct_stereo_status>
1

> <i_f3d_flags>
0

> <s_epik_input>
W0NIM11jMVtjSF1bY0hdW2NIXWMoYzEyKVtuSF1jKG4yKVtDSDJdW0NIMl1bTkhdQyg9TyljM1tjSF1bY0hdYyhbY0hdW2NIXTMpLW40W2NIXW5uW2NIXTQ=

> <s_epik_cmdline>
J2VwaWtfcHl0aG9uJywgJy1waHQnLCAnMC41JywgJy1waCcsICc3LjUnLCAnLW50JywgJy1tYScsICcyMDAnLCAnLWltYWUnLCAnPGluZmlsZS5tYWU+JywgJy1vbWFlJywgJzxvdXRmaWxlLm1hZT4n

> <r_epik_Ionization_Penalty>
  0.0387

> <r_epik_Ionization_Penalty_Charging>
  0.0000

> <r_epik_Ionization_Penalty_Neutral>
  0.0387

> <r_epik_State_Penalty>
  0.4435

> <r_epik_Charging_Adjusted_Penalty>
0.443456456505873

> <i_epik_Tot_Q>
0

> <i_epik_Tot_abs_Q>
0

> <s_lp_Force_Field>
OPLS3e

> <r_lp_Energy>
23.861266

> <b_lp_Chiralities_Consistent>
1

> <s_lp_Variant>
sdf/inactives_sanitized.sdf:245-2

$$$$
sdf/inactives_sanitized.sdf:246
                    3D
 Schrodinger Suite 2020-1.
 41 43  0  0  1  0            999 V2000
   -0.6889    1.1678    0.3015 N   0  0  0  0  0  0
   -2.0524   -0.5098   -0.0835 C   0  0  0  0  0  0
   -3.2811   -1.1609   -0.2458 C   0  0  0  0  0  0
   -3.1938    1.6279    0.3596 C   0  0  0  0  0  0
   -4.4131    0.9579    0.1910 C   0  0  0  0  0  0
   -4.4594   -0.4179   -0.1078 C   0  0  0  0  0  0
   -2.0292    0.8724    0.2170 C   0  0  0  0  0  0
    0.0016    0.0047    0.0508 C   0  0  0  0  0  0
   -0.7834   -1.0196   -0.1764 N   0  0  0  0  0  0
    1.5162   -0.0466   -0.0111 C   0  0  0  0  0  0
    2.0756   -0.0291   -1.4509 C   0  0  0  0  0  0
    1.6993    1.1631   -2.2150 N   0  0  0  0  0  0
    0.6274    1.2688   -3.0229 C   0  0  0  0  0  0
    0.3894    2.6390   -3.5994 C   0  0  0  0  0  0
   -0.1699    0.3537   -3.2348 O   0  0  0  0  0  0
    1.3483    3.3103   -4.3886 C   0  0  0  0  0  0
    1.0519    4.5685   -4.9188 C   0  0  0  0  0  0
   -0.1887    5.1603   -4.6901 C   0  0  0  0  0  0
   -1.1480    4.4921   -3.9337 C   0  0  0  0  0  0
   -0.8632    3.2367   -3.3992 C   0  0  0  0  0  0
   -5.7903   -1.1360   -0.2915 C   0  0  0  0  0  0
   -5.6973    1.7640    0.3407 C   0  0  0  0  0  0
    2.9003    2.6306   -4.7593 Cl  0  0  0  0  0  0
   -0.2422    2.0536    0.4890 H   0  0  0  0  0  0
   -3.3146   -2.2159   -0.4765 H   0  0  0  0  0  0
   -3.1560    2.6831    0.5880 H   0  0  0  0  0  0
    1.9543    0.7758    0.5561 H   0  0  0  0  0  0
    1.8724   -0.9485    0.4883 H   0  0  0  0  0  0
    3.1647   -0.0700   -1.4162 H   0  0  0  0  0  0
    1.7594   -0.9310   -1.9800 H   0  0  0  0  0  0
    2.3228    1.9539   -2.1437 H   0  0  0  0  0  0
    1.7844    5.0879   -5.5195 H   0  0  0  0  0  0
   -0.4091    6.1322   -5.1066 H   0  0  0  0  0  0
   -2.1137    4.9449   -3.7636 H   0  0  0  0  0  0
   -1.6244    2.7339   -2.8181 H   0  0  0  0  0  0
   -6.3622   -0.6744   -1.0970 H   0  0  0  0  0  0
   -6.3875   -1.0656    0.6180 H   0  0  0  0  0  0
   -5.6637   -2.1925   -0.5322 H   0  0  0  0  0  0
   -6.3181    1.3455    1.1335 H   0  0  0  0  0  0
   -6.2760    1.7306   -0.5828 H   0  0  0  0  0  0
   -5.5061    2.8106    0.5809 H   0  0  0  0  0  0
  1  7  1  0  0  0
  1  8  1  0  0  0
  1 24  1  0  0  0
  2  3  2  0  0  0
  2  7  1  0  0  0
  2  9  1  0  0  0
  3  6  1  0  0  0
  3 25  1  0  0  0
  4  7  2  0  0  0
  4  5  1  0  0  0
  4 26  1  0  0  0
  5  6  2  0  0  0
  5 22  1  0  0  0
  6 21  1  0  0  0
  8  9  2  0  0  0
  8 10  1  0  0  0
 10 11  1  0  0  0
 10 27  1  0  0  0
 10 28  1  0  0  0
 11 12  1  0  0  0
 11 29  1  0  0  0
 11 30  1  0  0  0
 12 13  1  0  0  0
 12 31  1  0  0  0
 13 14  1  0  0  0
 13 15  2  0  0  0
 14 16  2  0  0  0
 14 20  1  0  0  0
 16 17  1  0  0  0
 16 23  1  0  0  0
 17 18  2  0  0  0
 17 32  1  0  0  0
 18 19  1  0  0  0
 18 33  1  0  0  0
 19 20  2  0  0  0
 19 34  1  0  0  0
 20 35  1  0  0  0
 21 36  1  0  0  0
 21 37  1  0  0  0
 21 38  1  0  0  0
 22 39  1  0  0  0
 22 40  1  0  0  0
 22 41  1  0  0  0
M  END
> <chembl_id>
CHEMBL3423039

> <chembl_pref_name>
None

> <s_m_source_file>
sdf/inactives_sanitized.sdf

> <i_m_source_file_index>
246

> <i_lp_mmshare_version>
49012

> <i_m_ct_stereo_status>
1

> <i_f3d_flags>
0

> <s_epik_input>
W2NIXTFjKFtDSDNdKWMoW0NIM10pW2NIXWMoYzEyKVtuSF1jKG4yKVtDSDJdW0NIMl1bTkhdQyg9TyljM2MoQ2wpW2NIXVtjSF1bY0hdW2NIXTM=

> <s_epik_cmdline>
J2VwaWtfcHl0aG9uJywgJy1waHQnLCAnMC41JywgJy1waCcsICc3LjUnLCAnLW50JywgJy1tYScsICcyMDAnLCAnLWltYWUnLCAnPGluZmlsZS5tYWU+JywgJy1vbWFlJywgJzxvdXRmaWxlLm1hZT4n

> <r_epik_Ionization_Penalty>
  0.0235

> <r_epik_Ionization_Penalty_Charging>
  0.0000

> <r_epik_Ionization_Penalty_Neutral>
  0.0235

> <r_epik_State_Penalty>
  0.0190

> <r_epik_Charging_Adjusted_Penalty>
0.0189995681741242

> <i_epik_Tot_Q>
0

> <i_epik_Tot_abs_Q>
0

> <s_lp_Force_Field>
OPLS3e

> <r_lp_Energy>
18.833168

> <b_lp_Chiralities_Consistent>
1

> <s_lp_Variant>
sdf/inactives_sanitized.sdf:246-1

$$$$
 
                    3D
 Schrodinger Suite 2020-1.
 60 62  0  0  1  0            999 V2000
   -2.5836   -0.5469   -1.1345 C   0  0  0  0  0  0
   -2.5429    0.5550   -0.0514 C   0  0  0  0  0  0
   -1.2521    1.3663   -0.1231 C   0  0  0  0  0  0
   -0.1463    0.8617   -0.7417 C   0  0  0  0  0  0
   -0.1519   -0.4337   -1.4359 C   0  0  0  0  0  0
   -1.2614   -1.1952   -1.2142 N   0  0  0  0  0  0
    0.8087   -0.8619   -2.0838 O   0  0  0  0  0  0
   -1.2682    2.6516    0.6968 C   0  0  0  0  0  0
    1.1956    1.6234   -0.7867 C   0  0  0  0  0  0
    2.1191    1.2395    0.3833 C   0  0  0  0  0  0
    2.3962    2.0730    1.2465 O   0  0  0  0  0  0
    2.5846   -0.0223    0.3899 N   0  0  0  0  0  0
    3.4577   -0.6215    1.3957 C   0  0  0  0  0  0
    2.7578   -1.7329    2.1757 C   0  0  0  0  0  0
   -1.2792   -2.5889   -1.4467 N   0  0  2  0  0  0
   -0.6372   -3.3412   -0.3647 C   0  0  0  0  0  0
   -1.3298   -3.1836    0.9850 C   0  0  0  0  0  0
   -1.0344   -2.0876    1.8016 C   0  0  0  0  0  0
   -1.6767   -1.9066    3.0356 C   0  0  0  0  0  0
   -2.6020   -2.8757    3.4533 C   0  0  0  0  0  0
   -2.8895   -3.9797    2.6505 C   0  0  0  0  0  0
   -2.2592   -4.1312    1.4170 C   0  0  0  0  0  0
    2.6971   -3.0064    1.5967 C   0  0  0  0  0  0
    2.0911   -4.0672    2.2678 C   0  0  0  0  0  0
    1.5618   -3.8713    3.5406 C   0  0  0  0  0  0
    1.6373   -2.6154    4.1386 C   0  0  0  0  0  0
    2.2340   -1.5397    3.4703 C   0  0  0  0  0  0
    2.2363   -0.1787    4.1550 C   0  0  0  0  0  0
    3.5689    0.1649    4.8232 N   0  3  0  0  0  0
    1.9866   -5.6177    1.5177 Cl  0  0  0  0  0  0
   -1.3832   -0.7041    3.8800 C   0  0  0  0  0  0
   -1.6982   -0.7467    5.0909 O   0  0  0  0  0  0
   -0.8268    0.2748    3.3311 O   0  5  0  0  0  0
   -3.3699   -1.2653   -0.8940 H   0  0  0  0  0  0
   -2.8302   -0.1222   -2.1097 H   0  0  0  0  0  0
   -3.4175    1.2033   -0.1175 H   0  0  0  0  0  0
   -2.6035    0.1054    0.9401 H   0  0  0  0  0  0
   -1.7776    2.4829    1.6462 H   0  0  0  0  0  0
   -1.8096    3.4298    0.1591 H   0  0  0  0  0  0
   -0.2783    3.0311    0.9424 H   0  0  0  0  0  0
    1.7219    1.4585   -1.7287 H   0  0  0  0  0  0
    1.0205    2.6994   -0.7752 H   0  0  0  0  0  0
    2.3071   -0.6284   -0.3696 H   0  0  0  0  0  0
    4.3151   -1.0420    0.8680 H   0  0  0  0  0  0
    3.8835    0.1205    2.0716 H   0  0  0  0  0  0
   -0.7590   -2.7422   -2.2990 H   0  0  0  0  0  0
   -0.6270   -4.3955   -0.6431 H   0  0  0  0  0  0
    0.4088   -3.0445   -0.2753 H   0  0  0  0  0  0
   -0.3050   -1.3664    1.4597 H   0  0  0  0  0  0
   -3.1150   -2.7777    4.3996 H   0  0  0  0  0  0
   -3.6074   -4.7149    2.9828 H   0  0  0  0  0  0
   -2.4950   -4.9851    0.7989 H   0  0  0  0  0  0
    3.1063   -3.1697    0.6100 H   0  0  0  0  0  0
    1.0847   -4.6873    4.0636 H   0  0  0  0  0  0
    1.2104   -2.4774    5.1216 H   0  0  0  0  0  0
    2.0331    0.6413    3.4669 H   0  0  0  0  0  0
    1.5136   -0.1231    4.9708 H   0  0  0  0  0  0
    3.5031    1.0657    5.2754 H   0  0  0  0  0  0
    4.3041    0.2026    4.1320 H   0  0  0  0  0  0
    3.7981   -0.5309    5.5184 H   0  0  0  0  0  0
  1  2  1  0  0  0
  1  6  1  0  0  0
  1 34  1  0  0  0
  1 35  1  0  0  0
  2  3  1  0  0  0
  2 36  1  0  0  0
  2 37  1  0  0  0
  3  4  2  0  0  0
  3  8  1  0  0  0
  4  5  1  0  0  0
  4  9  1  0  0  0
  5  6  1  0  0  0
  5  7  2  0  0  0
  6 15  1  0  0  0
  8 38  1  0  0  0
  8 39  1  0  0  0
  8 40  1  0  0  0
  9 10  1  0  0  0
  9 41  1  0  0  0
  9 42  1  0  0  0
 10 11  2  0  0  0
 10 12  1  0  0  0
 12 13  1  0  0  0
 12 43  1  0  0  0
 13 14  1  0  0  0
 13 44  1  0  0  0
 13 45  1  0  0  0
 14 23  2  0  0  0
 14 27  1  0  0  0
 15 16  1  0  0  0
 15 46  1  0  0  0
 16 17  1  0  0  0
 16 47  1  0  0  0
 16 48  1  0  0  0
 17 18  2  0  0  0
 17 22  1  0  0  0
 18 19  1  0  0  0
 18 49  1  0  0  0
 19 20  2  0  0  0
 19 31  1  0  0  0
 20 21  1  0  0  0
 20 50  1  0  0  0
 21 22  2  0  0  0
 21 51  1  0  0  0
 22 52  1  0  0  0
 23 24  1  0  0  0
 23 53  1  0  0  0
 24 25  2  0  0  0
 24 30  1  0  0  0
 25 26  1  0  0  0
 25 54  1  0  0  0
 26 27  2  0  0  0
 26 55  1  0  0  0
 27 28  1  0  0  0
 28 29  1  0  0  0
 28 56  1  0  0  0
 28 57  1  0  0  0
 29 58  1  0  0  0
 29 59  1  0  0  0
 29 60  1  0  0  0
 31 32  2  0  0  0
 31 33  1  0  0  0
M  CHG  2  29   1  33  -1
M  END
> <chembl_id>
CHEMBL4443619

> <chembl_pref_name>
None

> <s_m_source_file>
sdf/inactives_sanitized.sdf

> <i_m_source_file_index>
247

> <i_lp_mmshare_version>
49012

> <i_m_ct_stereo_status>
1

> <i_f3d_flags>
0

> <s_epik_input>
W2NIXTFbY0hdW2NIXWMoQyg9TylbT0hdKVtjSF1jMVtDSDJdW05IXU4oW0NIMl1bQ0gyXTIpQyg9TylDKD1DMltDSDNdKVtDSDJdQyg9TylbTkhdW0NIMl1jM1tjSF1jKENsKVtjSF1bY0hdYzNbQ0gyXVtOSDJd

> <s_epik_cmdline>
J2VwaWtfcHl0aG9uJywgJy1waHQnLCAnMC41JywgJy1waCcsICc3LjUnLCAnLW50JywgJy1tYScsICcyMDAnLCAnLWltYWUnLCAnPGluZmlsZS5tYWU+JywgJy1vbWFlJywgJzxvdXRmaWxlLm1hZT4n

> <r_epik_Ionization_Penalty>
  0.0918

> <r_epik_Ionization_Penalty_Charging>
  0.0917

> <r_epik_Ionization_Penalty_Neutral>
  0.0000

> <r_epik_State_Penalty>
  0.0818

> <r_epik_Charging_Adjusted_Penalty>
0.173529993511696

> <i_epik_Tot_Q>
0

> <i_epik_Tot_abs_Q>
2

> <s_lp_Force_Field>
OPLS3e

> <r_lp_Energy>
33.810129

> <b_lp_Chiralities_Consistent>
1

> <s_lp_Variant>
 -1

$$$$
